<?xml version="1.0" encoding="UTF-8"?>

<!-- generated on 2023-11-30 15:27:35 by Eclipse SUMO netedit Version 1.18.0
<configuration xmlns:xsi="http://www.w3.org/2001/XMLSchema-instance" xsi:noNamespaceSchemaLocation="http://sumo.dlr.de/xsd/neteditConfiguration.xsd">

    <input>
        <sumo-net-file value="long_loop_map.net.xml"/>
    </input>

    <output>
        <output-file value="long_loop_map.net.xml"/>
    </output>

    <processing>
        <geometry.min-radius.fix.railways value="false"/>
        <geometry.max-grade.fix value="false"/>
        <offset.disable-normalization value="true"/>
        <lefthand value="0"/>
    </processing>

    <junctions>
        <no-turnarounds value="true"/>
        <junctions.corner-detail value="5"/>
        <junctions.limit-turn-speed value="5.50"/>
        <rectangular-lane-cut value="0"/>
    </junctions>

    <pedestrian>
        <walkingareas value="0"/>
    </pedestrian>

</configuration>
-->

<net version="1.16" junctionCornerDetail="5" limitTurnSpeed="5.50" xmlns:xsi="http://www.w3.org/2001/XMLSchema-instance" xsi:noNamespaceSchemaLocation="http://sumo.dlr.de/xsd/net_file.xsd">

    <location netOffset="-393698.08,-4989356.84" convBoundary="628.99,1141.72,1173.97,1764.04" origBoundary="7.605814,45.029474,7.747752,45.113927" projParameter="+proj=utm +zone=32 +ellps=WGS84 +datum=WGS84 +units=m +no_defs"/>

    <type id="highway.cycleway" priority="1" numLanes="1" speed="5.56" allow="bicycle" oneway="0" width="2.00"/>
    <type id="highway.footway" priority="1" numLanes="1" speed="2.78" allow="pedestrian" oneway="1" width="2.00"/>
    <type id="highway.pedestrian" priority="1" numLanes="1" speed="2.78" allow="pedestrian" oneway="1" width="2.00"/>
    <type id="highway.residential" priority="3" numLanes="1" speed="13.89" disallow="tram rail_urban rail rail_electric rail_fast ship" oneway="0"/>
    <type id="highway.secondary" priority="11" numLanes="1" speed="27.78" disallow="tram rail_urban rail rail_electric rail_fast ship" oneway="0"/>
    <type id="highway.secondary_link|railway.tram" priority="17" numLanes="1" speed="22.22" disallow="rail_urban rail rail_electric rail_fast ship" oneway="0"/>
    <type id="highway.service" priority="1" numLanes="1" speed="5.56" allow="pedestrian delivery bicycle" oneway="0"/>
    <type id="highway.service|railway.tram" priority="17" numLanes="1" speed="13.89" allow="pedestrian delivery bicycle tram" oneway="0"/>
    <type id="highway.unclassified" priority="4" numLanes="1" speed="13.89" disallow="tram rail_urban rail rail_electric rail_fast ship" oneway="0"/>
    <type id="railway.tram" priority="17" numLanes="1" speed="13.89" allow="tram" oneway="1"/>

    <edge id=":10210598962_0" function="internal">
        <lane id=":10210598962_0_0" index="0" disallow="tram rail_urban rail rail_electric rail_fast ship" speed="8.33" length="5.21" shape="998.31,1401.23 995.86,1396.64"/>
    </edge>
    <edge id=":1168929269_0" function="internal">
        <lane id=":1168929269_0_0" index="0" allow="bus tram" speed="6.35" length="6.98" shape="911.34,1171.62 910.54,1172.77 910.31,1174.24 910.67,1176.01 911.60,1178.10"/>
    </edge>
    <edge id=":1168929269_1" function="internal">
        <lane id=":1168929269_1_0" index="0" disallow="pedestrian rail_urban rail rail_electric rail_fast ship" speed="18.05" length="4.85" shape="911.34,1171.62 910.29,1172.60 909.56,1173.27 908.77,1173.86 907.55,1174.62"/>
    </edge>
    <edge id=":1168929269_2" function="internal">
        <lane id=":1168929269_2_0" index="0" allow="bus tram" speed="13.89" length="8.67" shape="907.48,1170.47 911.60,1178.10"/>
    </edge>
    <edge id=":1168929269_3" function="internal">
        <lane id=":1168929269_3_0" index="0" allow="bus tram" speed="5.66" length="4.58" shape="907.48,1170.47 908.12,1171.92 908.35,1173.10 908.16,1174.00 907.55,1174.62"/>
    </edge>
    <edge id=":1168929383_0" function="internal">
        <lane id=":1168929383_0_0" index="0" disallow="pedestrian tram rail_urban rail rail_electric rail_fast ship" speed="5.55" length="5.35" shape="867.51,1170.91 866.63,1170.89 865.26,1171.62 863.85,1172.59 862.85,1173.27"/>
    </edge>
    <edge id=":1168929383_1" function="internal">
        <lane id=":1168929383_1_0" index="0" disallow="pedestrian rail_urban rail rail_electric rail_fast ship" speed="13.89" length="18.13" shape="867.51,1170.91 864.03,1166.67 862.03,1163.45 860.68,1159.88 859.15,1154.59"/>
        <lane id=":1168929383_1_1" index="1" disallow="pedestrian rail_urban rail rail_electric rail_fast ship" speed="13.89" length="18.13" shape="870.09,1169.00 866.79,1164.97 864.89,1161.91 863.61,1158.52 862.16,1153.49"/>
    </edge>
    <edge id=":1168929383_3" function="internal">
        <lane id=":1168929383_3_0" index="0" disallow="pedestrian tram rail_urban rail rail_electric rail_fast ship" speed="7.78" length="15.34" shape="870.09,1169.00 866.77,1164.51 865.23,1160.84 865.48,1157.97 867.51,1155.91"/>
        <lane id=":1168929383_3_1" index="1" disallow="pedestrian tram rail_urban rail rail_electric rail_fast ship" speed="6.98" length="12.14" shape="870.09,1169.00 867.66,1165.61 866.69,1162.77 867.17,1160.46 869.09,1158.69"/>
    </edge>
    <edge id=":1168929383_5" function="internal">
        <lane id=":1168929383_5_0" index="0" disallow="tram rail_urban rail rail_electric rail_fast ship" speed="13.89" length="13.45" shape="873.82,1167.05 862.85,1173.27"/>
        <lane id=":1168929383_5_1" index="1" disallow="tram rail_urban rail rail_electric rail_fast ship" speed="13.89" length="13.45" shape="873.82,1167.05 870.26,1168.48 867.54,1168.76 864.82,1169.04 861.27,1170.49"/>
        <lane id=":1168929383_5_2" index="2" disallow="tram rail_urban rail rail_electric rail_fast ship" speed="13.89" length="13.45" shape="873.82,1167.05 869.88,1168.13 866.75,1167.37 863.62,1166.62 859.69,1167.71"/>
    </edge>
    <edge id=":1168929383_8" function="internal">
        <lane id=":1168929383_8_0" index="0" disallow="pedestrian tram rail_urban rail rail_electric rail_fast ship" speed="8.57" length="19.38" shape="872.24,1164.26 868.10,1165.54 864.53,1164.35 861.55,1160.70 859.15,1154.59"/>
        <lane id=":1168929383_8_1" index="1" disallow="pedestrian tram rail_urban rail rail_electric rail_fast ship" speed="7.26" length="13.57" shape="870.67,1161.48 868.13,1162.11 865.87,1160.99 863.88,1158.12 862.16,1153.49"/>
    </edge>
    <edge id=":1168929383_10" function="internal">
        <lane id=":1168929383_10_0" index="0" disallow="tram rail_urban rail rail_electric rail_fast ship" speed="3.65" length="4.67" shape="870.67,1161.48 869.23,1161.37 868.49,1160.87 868.44,1159.98 869.09,1158.69"/>
    </edge>
    <edge id=":1168929383_11" function="internal">
        <lane id=":1168929383_11_0" index="0" disallow="pedestrian tram rail_urban rail rail_electric rail_fast ship" speed="6.24" length="6.74" shape="854.94,1159.37 857.00,1158.04 858.39,1156.81 859.10,1155.65 859.15,1154.59"/>
        <lane id=":1168929383_11_1" index="1" disallow="pedestrian tram rail_urban rail rail_electric rail_fast ship" speed="7.85" length="11.15" shape="856.52,1162.15 859.49,1160.11 861.42,1158.00 862.31,1155.79 862.16,1153.49"/>
    </edge>
    <edge id=":1168929383_13" function="internal">
        <lane id=":1168929383_13_0" index="0" disallow="tram rail_urban rail rail_electric rail_fast ship" speed="13.89" length="13.48" shape="858.10,1164.93 861.06,1162.10 862.02,1159.02 862.98,1155.95 865.94,1153.12"/>
        <lane id=":1168929383_13_1" index="1" disallow="tram rail_urban rail rail_electric rail_fast ship" speed="13.89" length="13.48" shape="858.10,1164.93 861.16,1162.61 862.81,1160.41 864.45,1158.22 867.51,1155.91"/>
        <lane id=":1168929383_13_2" index="2" disallow="tram rail_urban rail rail_electric rail_fast ship" speed="13.89" length="13.48" shape="858.10,1164.93 869.09,1158.69"/>
    </edge>
    <edge id=":1168929383_16" function="internal">
        <lane id=":1168929383_16_0" index="0" disallow="tram rail_urban rail rail_electric rail_fast ship" speed="3.65" length="4.67" shape="858.10,1164.93 859.54,1165.03 860.28,1165.53 860.33,1166.42 859.69,1167.71"/>
    </edge>
    <edge id=":1168929400_0" function="internal">
        <lane id=":1168929400_0_0" index="0" disallow="pedestrian tram rail_urban rail rail_electric rail_fast ship" speed="11.15" length="8.14" shape="885.28,1184.68 884.33,1182.43 883.91,1180.63 883.18,1179.18 881.32,1177.95"/>
    </edge>
    <edge id=":1168929400_1" function="internal">
        <lane id=":1168929400_1_0" index="0" disallow="pedestrian rail_urban rail rail_electric rail_fast ship" speed="13.89" length="6.95" shape="888.10,1179.36 886.06,1179.03 884.63,1178.90 883.25,1178.64 881.32,1177.95"/>
    </edge>
    <edge id=":1168929459_0" function="internal">
        <lane id=":1168929459_0_0" index="0" disallow="pedestrian tram rail_urban rail rail_electric rail_fast ship" speed="11.42" length="8.58" shape="920.17,1158.24 920.00,1160.67 920.51,1162.31 921.49,1163.89 922.77,1166.11"/>
    </edge>
    <edge id=":1168929459_1" function="internal">
        <lane id=":1168929459_1_0" index="0" disallow="pedestrian rail_urban rail rail_electric rail_fast ship" speed="22.22" length="7.67" shape="920.17,1158.24 919.61,1160.41 918.91,1161.79 918.00,1163.10 916.79,1165.04"/>
    </edge>
    <edge id=":1168929485_0" function="internal">
        <lane id=":1168929485_0_0" index="0" disallow="pedestrian rail_urban rail rail_electric rail_fast ship" speed="22.22" length="0.10" shape="915.60,1167.21 915.56,1167.29"/>
    </edge>
    <edge id=":1168929523_0" function="internal">
        <lane id=":1168929523_0_0" index="0" allow="bus delivery bicycle tram" speed="4.10" length="2.18" shape="868.10,1169.47 867.54,1171.58"/>
    </edge>
    <edge id=":1168929523_1" function="internal">
        <lane id=":1168929523_1_0" index="0" disallow="pedestrian rail_urban rail rail_electric rail_fast ship" speed="13.89" length="1.90" shape="868.10,1169.47 867.64,1171.06"/>
        <lane id=":1168929523_1_1" index="1" disallow="pedestrian rail_urban rail rail_electric rail_fast ship" speed="13.89" length="1.90" shape="868.10,1169.47 870.22,1169.15"/>
    </edge>
    <edge id=":1168929523_3" function="internal">
        <lane id=":1168929523_3_0" index="0" allow="bus delivery bicycle tram" speed="13.89" length="6.52" shape="873.12,1168.19 867.54,1171.58"/>
    </edge>
    <edge id=":1168929523_4" function="internal">
        <lane id=":1168929523_4_0" index="0" allow="bus delivery bicycle tram" speed="5.29" length="3.25" shape="873.12,1168.19 872.39,1168.66 871.58,1169.14 870.82,1169.39 870.22,1169.15"/>
    </edge>
    <edge id=":1168929531_0" function="internal">
        <lane id=":1168929531_0_0" index="0" allow="bicycle" speed="5.56" length="4.32" width="2.00" shape="919.44,1179.20 918.84,1178.07 918.41,1177.30 917.94,1176.56 917.21,1175.51"/>
    </edge>
    <edge id=":1168929531_1" function="internal">
        <lane id=":1168929531_1_0" index="0" allow="bicycle" speed="2.89" length="1.27" width="2.00" shape="919.44,1179.20 919.53,1178.31 919.74,1178.00"/>
    </edge>
    <edge id=":1168929531_4" function="internal">
        <lane id=":1168929531_4_0" index="0" allow="bicycle" speed="2.89" length="1.65" width="2.00" shape="919.74,1178.00 919.85,1177.85 920.41,1177.83 921.21,1178.26"/>
    </edge>
    <edge id=":1168929531_2" function="internal">
        <lane id=":1168929531_2_0" index="0" allow="bicycle" speed="5.56" length="4.56" width="2.00" shape="918.85,1174.36 919.62,1175.47 920.12,1176.25 920.57,1177.06 921.21,1178.26"/>
    </edge>
    <edge id=":1168929531_3" function="internal">
        <lane id=":1168929531_3_0" index="0" allow="bicycle" speed="2.89" length="1.29" width="2.00" shape="918.85,1174.36 918.87,1175.26 918.69,1175.60"/>
    </edge>
    <edge id=":1168929531_5" function="internal">
        <lane id=":1168929531_5_0" index="0" allow="bicycle" speed="2.89" length="1.63" width="2.00" shape="918.69,1175.60 918.61,1175.75 918.06,1175.83 917.21,1175.51"/>
    </edge>
    <edge id=":1168929558_0" function="internal">
        <lane id=":1168929558_0_0" index="0" disallow="pedestrian tram rail_urban rail rail_electric rail_fast ship" speed="5.93" length="6.03" shape="905.27,1181.56 904.16,1179.77 903.07,1178.58 901.99,1177.97 900.92,1177.95"/>
    </edge>
    <edge id=":1168929558_1" function="internal">
        <lane id=":1168929558_1_0" index="0" disallow="pedestrian tram rail_urban rail rail_electric rail_fast ship" speed="13.89" length="8.69" shape="905.27,1181.56 901.17,1173.90"/>
    </edge>
    <edge id=":1168929558_2" function="internal">
        <lane id=":1168929558_2_0" index="0" disallow="pedestrian tram rail_urban rail rail_electric rail_fast ship" speed="3.65" length="4.67" shape="905.27,1181.56 905.41,1180.13 905.93,1179.40 906.82,1179.37 908.09,1180.06"/>
    </edge>
    <edge id=":1168929558_3" function="internal">
        <lane id=":1168929558_3_0" index="0" disallow="pedestrian tram rail_urban rail rail_electric rail_fast ship" speed="5.44" length="5.79" shape="907.38,1174.72 906.82,1175.42 906.75,1176.54 907.17,1178.08 908.09,1180.06"/>
    </edge>
    <edge id=":1168929558_4" function="internal">
        <lane id=":1168929558_4_0" index="0" disallow="pedestrian rail_urban rail rail_electric rail_fast ship" speed="13.89" length="7.27" shape="907.38,1174.72 905.55,1175.87 904.29,1176.68 902.97,1177.32 900.92,1177.95"/>
    </edge>
    <edge id=":1168929558_5" function="internal">
        <lane id=":1168929558_5_0" index="0" disallow="pedestrian tram rail_urban rail rail_electric rail_fast ship" speed="5.80" length="7.17" shape="907.38,1174.72 905.35,1175.64 903.64,1175.81 902.24,1175.23 901.17,1173.90"/>
    </edge>
    <edge id=":1168929558_6" function="internal">
        <lane id=":1168929558_6_0" index="0" disallow="pedestrian tram rail_urban rail rail_electric rail_fast ship" speed="13.89" length="8.70" shape="903.99,1172.39 908.09,1180.06"/>
    </edge>
    <edge id=":1168929558_7" function="internal">
        <lane id=":1168929558_7_0" index="0" disallow="pedestrian tram rail_urban rail rail_electric rail_fast ship" speed="5.64" length="7.69" shape="903.99,1172.39 904.63,1174.30 904.34,1175.86 903.10,1177.08 900.92,1177.95"/>
    </edge>
    <edge id=":1168929558_8" function="internal">
        <lane id=":1168929558_8_0" index="0" disallow="pedestrian tram rail_urban rail rail_electric rail_fast ship" speed="3.65" length="4.67" shape="903.99,1172.39 903.85,1173.82 903.34,1174.56 902.44,1174.58 901.17,1173.90"/>
    </edge>
    <edge id=":1168929562_0" function="internal">
        <lane id=":1168929562_0_0" index="0" allow="bus tram" speed="8.24" length="6.61" shape="900.91,1183.53 899.64,1181.42 898.49,1179.93 897.47,1179.08 896.57,1178.85"/>
    </edge>
    <edge id=":1168929562_1" function="internal">
        <lane id=":1168929562_1_0" index="0" allow="bus tram" speed="13.89" length="9.38" shape="900.91,1183.53 896.47,1175.26"/>
    </edge>
    <edge id=":1168929562_2" function="internal">
        <lane id=":1168929562_2_0" index="0" disallow="pedestrian rail_urban rail rail_electric rail_fast ship" speed="13.89" length="4.26" shape="900.73,1178.01 899.51,1178.34 898.67,1178.55 897.82,1178.70 896.57,1178.85"/>
    </edge>
    <edge id=":1168929562_3" function="internal">
        <lane id=":1168929562_3_0" index="0" allow="bus tram" speed="5.68" length="5.50" shape="900.73,1178.01 899.53,1178.08 898.43,1177.65 897.41,1176.71 896.47,1175.26"/>
    </edge>
    <edge id=":1168929659_0" function="internal">
        <lane id=":1168929659_0_0" index="0" allow="bicycle" speed="5.56" length="4.81" width="2.00" shape="913.84,1170.71 911.07,1166.77"/>
    </edge>
    <edge id=":1168929659_1" function="internal">
        <lane id=":1168929659_1_0" index="0" allow="bicycle" speed="3.00" length="0.50" width="2.00" shape="913.84,1170.71 914.05,1170.26"/>
    </edge>
    <edge id=":1168929659_2" function="internal">
        <lane id=":1168929659_2_0" index="0" allow="bicycle" speed="3.57" length="2.63" width="2.00" shape="913.84,1170.71 913.40,1170.45 912.93,1170.76 912.43,1171.34 911.89,1171.93"/>
    </edge>
    <edge id=":1168929659_9" function="internal">
        <lane id=":1168929659_9_0" index="0" allow="bicycle" speed="3.00" length="2.76" width="2.00" shape="914.05,1170.26 914.27,1169.80 914.78,1169.44 915.38,1169.64 916.05,1170.39"/>
    </edge>
    <edge id=":1168929659_3" function="internal">
        <lane id=":1168929659_3_0" index="0" allow="bicycle" speed="4.18" length="2.46" width="2.00" shape="915.64,1168.18 915.35,1168.73 915.39,1169.26 915.65,1169.80 916.05,1170.39"/>
    </edge>
    <edge id=":1168929659_4" function="internal">
        <lane id=":1168929659_4_0" index="0" disallow="pedestrian rail_urban rail rail_electric rail_fast ship" speed="22.22" length="5.23" shape="915.18,1167.79 914.17,1168.97 913.43,1169.73 912.64,1170.45 911.49,1171.49"/>
    </edge>
    <edge id=":1168929659_5" function="internal">
        <lane id=":1168929659_5_0" index="0" allow="bicycle" speed="4.50" length="4.51" width="2.00" shape="914.72,1167.41 913.84,1168.14 912.94,1168.28 912.02,1167.83 911.07,1166.77"/>
    </edge>
    <edge id=":1168929659_6" function="internal">
        <lane id=":1168929659_6_0" index="0" allow="bicycle" speed="5.56" length="5.83" width="2.00" shape="912.70,1165.61 916.05,1170.39"/>
    </edge>
    <edge id=":1168929659_7" function="internal">
        <lane id=":1168929659_7_0" index="0" allow="bicycle" speed="5.96" length="3.18" width="2.00" shape="912.70,1165.61 913.55,1167.28 913.67,1168.58"/>
    </edge>
    <edge id=":1168929659_8" function="internal">
        <lane id=":1168929659_8_0" index="0" allow="bicycle" speed="2.89" length="1.28" width="2.00" shape="912.70,1165.61 912.72,1166.52 912.55,1166.85"/>
    </edge>
    <edge id=":1168929659_10" function="internal">
        <lane id=":1168929659_10_0" index="0" allow="bicycle" speed="5.96" length="3.90" width="2.00" shape="913.67,1168.58 913.70,1168.89 913.15,1170.44 911.89,1171.93"/>
    </edge>
    <edge id=":1168929659_11" function="internal">
        <lane id=":1168929659_11_0" index="0" allow="bicycle" speed="2.89" length="1.64" width="2.00" shape="912.55,1166.85 912.46,1167.01 911.91,1167.10 911.07,1166.77"/>
    </edge>
    <edge id=":1246731455_0" function="internal">
        <lane id=":1246731455_0_0" index="0" disallow="pedestrian tram rail_urban rail rail_electric rail_fast ship" speed="7.75" length="6.61" shape="877.51,1176.32 876.55,1176.20 875.20,1176.48 873.46,1177.17 871.33,1178.27"/>
    </edge>
    <edge id=":1246731455_1" function="internal">
        <lane id=":1246731455_1_0" index="0" allow="tram" speed="11.67" length="9.46" shape="877.51,1176.32 875.02,1174.94 873.30,1173.73 871.53,1173.07 868.92,1173.34"/>
    </edge>
    <edge id=":1246731455_2" function="internal">
        <lane id=":1246731455_2_0" index="0" disallow="pedestrian rail_urban rail rail_electric rail_fast ship" speed="13.89" length="11.53" shape="877.51,1176.32 874.46,1174.85 872.54,1173.52 870.79,1171.91 868.26,1169.60"/>
    </edge>
    <edge id=":1246731457_0" function="internal">
        <lane id=":1246731457_0_0" index="0" allow="tram" speed="13.89" length="5.51" shape="913.21,1177.64 913.15,1179.28 913.16,1180.42 913.40,1181.51 914.07,1182.97"/>
    </edge>
    <edge id=":1246731457_1" function="internal">
        <lane id=":1246731457_1_0" index="0" allow="bus tram" speed="13.89" length="5.84" shape="911.70,1177.64 912.34,1179.25 912.78,1180.35 913.28,1181.43 914.07,1182.97"/>
    </edge>
    <edge id=":1246731460_0" function="internal">
        <lane id=":1246731460_0_0" index="0" allow="tram" speed="13.89" length="10.62" shape="897.32,1184.79 894.94,1182.85 893.25,1181.39 891.35,1180.28 888.35,1179.41"/>
    </edge>
    <edge id=":1246731460_1" function="internal">
        <lane id=":1246731460_1_0" index="0" disallow="pedestrian rail_urban rail rail_electric rail_fast ship" speed="13.89" length="8.11" shape="896.37,1178.88 893.98,1179.26 892.34,1179.62 890.70,1179.73 888.35,1179.41"/>
    </edge>
    <edge id=":1246731482_0" function="internal">
        <lane id=":1246731482_0_0" index="0" disallow="pedestrian rail_urban rail rail_electric rail_fast ship" speed="22.22" length="0.26" shape="915.46,1167.42 915.31,1167.64"/>
    </edge>
    <edge id=":1246731482_1" function="internal">
        <lane id=":1246731482_1_0" index="0" allow="tram" speed="18.05" length="4.27" shape="915.46,1167.42 914.74,1168.45 914.39,1169.24 914.15,1170.09 913.77,1171.30"/>
    </edge>
    <edge id=":1246731576_0" function="internal">
        <lane id=":1246731576_0_0" index="0" allow="tram" speed="13.89" length="8.38" shape="868.72,1173.39 866.28,1173.86 864.55,1174.05 862.89,1174.43 860.68,1175.47"/>
    </edge>
    <edge id=":1246731576_1" function="internal">
        <lane id=":1246731576_1_0" index="0" allow="bus delivery bicycle tram" speed="13.89" length="7.69" shape="867.37,1171.68 860.68,1175.47"/>
    </edge>
    <edge id=":1246731601_0" function="internal">
        <lane id=":1246731601_0_0" index="0" allow="bus delivery bicycle tram" speed="13.89" length="0.10" shape="852.50,1160.17 852.50,1160.17"/>
    </edge>
    <edge id=":1246731647_0" function="internal">
        <lane id=":1246731647_0_0" index="0" allow="tram" speed="13.89" length="8.04" shape="904.95,1191.45 903.71,1189.47 902.55,1188.35 901.12,1187.44 899.12,1186.14"/>
    </edge>
    <edge id=":1246731647_1" function="internal">
        <lane id=":1246731647_1_0" index="0" allow="bus tram" speed="13.89" length="6.52" shape="904.95,1191.45 902.06,1185.61"/>
    </edge>
    <edge id=":13929775_0" function="internal">
        <lane id=":13929775_0_0" index="0" disallow="tram rail_urban rail rail_electric rail_fast ship" speed="13.89" length="13.37" shape="668.68,1283.63 664.88,1284.64 661.71,1283.92 658.77,1283.06 655.71,1283.65"/>
    </edge>
    <edge id=":13929775_1" function="internal">
        <lane id=":13929775_1_0" index="0" disallow="tram rail_urban rail rail_electric rail_fast ship" speed="3.65" length="1.44" shape="665.51,1278.07 664.07,1277.97"/>
    </edge>
    <edge id=":13929775_9" function="internal">
        <lane id=":13929775_9_0" index="0" disallow="tram rail_urban rail rail_electric rail_fast ship" speed="3.65" length="3.23" shape="664.07,1277.97 663.33,1277.47 663.28,1276.58 663.93,1275.29"/>
    </edge>
    <edge id=":13929775_2" function="internal">
        <lane id=":13929775_2_0" index="0" disallow="tram rail_urban rail rail_electric rail_fast ship" speed="5.05" length="5.20" shape="656.51,1272.71 660.76,1269.73"/>
    </edge>
    <edge id=":13929775_3" function="internal">
        <lane id=":13929775_3_0" index="0" disallow="tram rail_urban rail rail_electric rail_fast ship" speed="6.95" length="16.60" shape="656.51,1272.71 663.98,1287.53"/>
    </edge>
    <edge id=":13929775_4" function="internal">
        <lane id=":13929775_4_0" index="0" disallow="tram rail_urban rail rail_electric rail_fast ship" speed="7.59" length="12.23" shape="656.51,1272.71 658.02,1276.44 658.39,1279.50 657.62,1281.91 655.71,1283.65"/>
    </edge>
    <edge id=":13929775_5" function="internal">
        <lane id=":13929775_5_0" index="0" disallow="tram rail_urban rail rail_electric rail_fast ship" speed="13.89" length="11.57" shape="654.12,1280.87 656.52,1278.93 657.95,1276.85 659.52,1274.69 662.35,1272.51"/>
        <lane id=":13929775_5_1" index="1" disallow="tram rail_urban rail rail_electric rail_fast ship" speed="13.89" length="11.57" shape="654.12,1280.87 663.93,1275.29"/>
    </edge>
    <edge id=":13929775_7" function="internal">
        <lane id=":13929775_7_0" index="0" disallow="tram rail_urban rail rail_electric rail_fast ship" speed="7.63" length="3.70" shape="654.12,1280.87 656.65,1280.20 657.67,1280.56"/>
    </edge>
    <edge id=":13929775_8" function="internal">
        <lane id=":13929775_8_0" index="0" disallow="tram rail_urban rail rail_electric rail_fast ship" speed="3.65" length="1.44" shape="654.12,1280.87 655.56,1280.97"/>
    </edge>
    <edge id=":13929775_10" function="internal">
        <lane id=":13929775_10_0" index="0" disallow="tram rail_urban rail rail_electric rail_fast ship" speed="7.63" length="9.68" shape="657.67,1280.56 659.14,1281.08 661.58,1283.53 663.98,1287.53"/>
    </edge>
    <edge id=":13929775_11" function="internal">
        <lane id=":13929775_11_0" index="0" disallow="tram rail_urban rail rail_electric rail_fast ship" speed="3.65" length="3.23" shape="655.56,1280.97 656.30,1281.47 656.35,1282.36 655.71,1283.65"/>
    </edge>
    <edge id=":1720645800_0" function="internal">
        <lane id=":1720645800_0_0" index="0" disallow="tram rail_urban rail rail_electric rail_fast ship" speed="8.33" length="7.01" shape="1044.26,1397.21 1047.52,1403.41"/>
    </edge>
    <edge id=":1720645802_0" function="internal">
        <lane id=":1720645802_0_0" index="0" disallow="pedestrian tram rail_urban rail rail_electric rail_fast ship" speed="13.89" length="7.00" shape="1027.29,1413.81 1024.02,1407.62"/>
    </edge>
    <edge id=":1720645802_1" function="internal">
        <lane id=":1720645802_1_0" index="0" disallow="pedestrian tram rail_urban rail rail_electric rail_fast ship" speed="13.89" length="7.00" shape="1026.85,1406.12 1030.12,1412.32"/>
    </edge>
    <edge id=":1720645806_0" function="internal">
        <lane id=":1720645806_0_0" index="0" disallow="tram rail_urban rail rail_electric rail_fast ship" speed="8.33" length="7.00" shape="1009.96,1423.00 1006.66,1416.83"/>
    </edge>
    <edge id=":1720645814_0" function="internal">
        <lane id=":1720645814_0_0" index="0" disallow="tram rail_urban rail rail_electric rail_fast ship" speed="13.89" length="3.92" shape="1084.36,1579.28 1087.84,1577.49"/>
    </edge>
    <edge id=":1720645818_0" function="internal">
        <lane id=":1720645818_0_0" index="0" disallow="tram rail_urban rail rail_electric rail_fast ship" speed="13.89" length="5.02" shape="1096.35,1591.65 1091.90,1593.98"/>
    </edge>
    <edge id=":1726394724_0" function="internal">
        <lane id=":1726394724_0_0" index="0" disallow="pedestrian tram rail_urban rail rail_electric rail_fast ship" speed="3.96" length="2.80" shape="892.54,1157.79 892.19,1157.41 891.66,1157.30 890.94,1157.46 890.03,1157.89"/>
        <lane id=":1726394724_0_1" index="1" disallow="pedestrian tram rail_urban rail rail_electric rail_fast ship" speed="5.16" length="5.51" shape="892.54,1157.79 891.56,1156.15 890.56,1155.16 889.52,1154.81 888.46,1155.10"/>
        <lane id=":1726394724_0_2" index="2" disallow="pedestrian tram rail_urban rail rail_electric rail_fast ship" speed="6.22" length="8.52" shape="892.54,1157.79 890.93,1154.90 889.45,1153.03 888.10,1152.17 886.88,1152.32"/>
    </edge>
    <edge id=":1726394724_3" function="internal">
        <lane id=":1726394724_3_0" index="0" disallow="pedestrian tram rail_urban rail rail_electric rail_fast ship" speed="9.16" length="19.74" shape="882.15,1143.96 885.07,1143.55 888.25,1145.49 891.70,1149.76 895.41,1156.37"/>
    </edge>
    <edge id=":1726394725_0" function="internal">
        <lane id=":1726394725_0_0" index="0" allow="bus delivery bicycle" speed="5.09" length="5.28" shape="894.29,1161.13 893.31,1159.56 892.33,1158.59 891.35,1158.24 890.37,1158.49"/>
    </edge>
    <edge id=":1726394725_1" function="internal">
        <lane id=":1726394725_1_0" index="0" disallow="pedestrian tram rail_urban rail rail_electric rail_fast ship" speed="13.89" length="3.57" shape="894.29,1161.13 892.63,1157.97"/>
    </edge>
    <edge id=":1726394725_2" function="internal">
        <lane id=":1726394725_2_0" index="0" disallow="pedestrian tram rail_urban rail rail_electric rail_fast ship" speed="3.65" length="4.67" shape="894.29,1161.13 894.45,1159.70 894.97,1158.97 895.87,1158.96 897.13,1159.66"/>
    </edge>
    <edge id=":1726394725_3" function="internal">
        <lane id=":1726394725_3_0" index="0" allow="bus delivery bicycle" speed="6.00" length="5.30" shape="896.85,1154.81 896.22,1155.48 896.06,1156.51 896.36,1157.90 897.13,1159.66"/>
    </edge>
    <edge id=":1726394725_4" function="internal">
        <lane id=":1726394725_4_0" index="0" allow="bus delivery bicycle tram" speed="13.89" length="7.45" shape="896.85,1154.81 890.37,1158.49"/>
    </edge>
    <edge id=":1726394725_5" function="internal">
        <lane id=":1726394725_5_0" index="0" allow="bus delivery bicycle" speed="5.73" length="5.27" shape="896.85,1154.81 892.63,1157.97"/>
    </edge>
    <edge id=":1726394725_6" function="internal">
        <lane id=":1726394725_6_0" index="0" disallow="pedestrian tram rail_urban rail rail_electric rail_fast ship" speed="13.89" length="3.51" shape="895.50,1156.55 897.13,1159.66"/>
    </edge>
    <edge id=":1726394725_7" function="internal">
        <lane id=":1726394725_7_0" index="0" allow="bus delivery bicycle" speed="5.34" length="5.48" shape="895.50,1156.55 890.37,1158.49"/>
    </edge>
    <edge id=":1726394725_8" function="internal">
        <lane id=":1726394725_8_0" index="0" disallow="pedestrian tram rail_urban rail rail_electric rail_fast ship" speed="3.65" length="4.67" shape="895.50,1156.55 895.31,1157.98 894.77,1158.69 893.88,1158.69 892.63,1157.97"/>
    </edge>
    <edge id=":1780219359_0" function="internal">
        <lane id=":1780219359_0_0" index="0" disallow="tram rail_urban rail rail_electric rail_fast ship" speed="13.89" length="0.25" shape="644.83,1319.88 644.74,1319.71"/>
        <lane id=":1780219359_0_1" index="1" disallow="tram rail_urban rail rail_electric rail_fast ship" speed="13.89" length="0.25" shape="647.70,1318.46 647.56,1318.19"/>
    </edge>
    <edge id=":1780219361_0" function="internal">
        <lane id=":1780219361_0_0" index="0" disallow="tram rail_urban rail rail_electric rail_fast ship" speed="13.89" length="0.30" shape="658.22,1312.44 658.36,1312.71"/>