<!-- number of vehicles:20 -->
<!-- generated on 2020-04-18 16:49:03.286463 by "cars.rou.xml -m 1 -r 1.4 -t 20" -->
<routes>
  <route id="0" edges="ne_to_nw nw_to_sw sw_to_se se_to_ne"/>
  <route id="1" edges="se_to_sw sw_to_nw nw_to_ne ne_to_se"/>
  <route id="2" edges="nw_to_sw sw_to_se se_to_ne ne_to_nw"/>
  <route id="3" edges="sw_to_nw nw_to_ne ne_to_se se_to_sw"/>
  <route id="4" edges="sw_to_se se_to_ne ne_to_nw nw_to_sw"/>
  <route id="5" edges="nw_to_ne ne_to_se se_to_sw sw_to_nw"/>

  <vType accel="4" decel="7.5" emergencyDecel="10" minGap="1.0" id="Car0" vClass="emergency"  maxSpeed="20.83"/>
  <vType accel="4" decel="7.5" emergencyDecel="10" minGap="1.0" id="Car1" maxSpeed="5.55"/>
  <vType accel="4" decel="7.5" emergencyDecel="7" minGap="1.0" id="Car2" maxSpeed="6.94"/>
  <vType accel="4" decel="7.5" emergencyDecel="10" minGap="1.0" id="Car3" maxSpeed="8.33"/>
  <vType accel="4" decel="7.5" emergencyDecel="10" minGap="1.0" id="Car4" maxSpeed="9.72"/>
  <vType accel="4" decel="7.5" emergencyDecel="10" minGap="1.0" id="Car5" maxSpeed="11.11"/>
  <vType accel="4" decel="7.5" emergencyDecel="10" minGap="1.0" id="Car6" maxSpeed="12.5"/>
  <vType accel="4" decel="7.5" emergencyDecel="10" minGap="1.0" id="Car7" maxSpeed="13.89"/>
  <vType accel="4" decel="7.5" emergencyDecel="10" minGap="1.0" id="Car8" maxSpeed="15.27"/>
  <vType accel="4" decel="7.5" emergencyDecel="10" minGap="1.0" id="Car9" maxSpeed="16.66"/>

      <vehicle id="veh1" type="Car2" depart="0.305337402498" route="0">
    </vehicle>
      <vehicle id="veh2" type="Car0" depart="0.600133874271" route="0">
    </vehicle>
      <vehicle id="veh3" type="Car2" depart="4.64994493787" route="1">
    </vehicle>
      <vehicle id="veh4" type="Car1" depart="4.76851800147" route="5">
    </vehicle>
      <vehicle id="veh5" type="Car5" depart="5.27469051452" route="3">
    </vehicle>
      <vehicle id="veh6" type="Car3" depart="5.37358402415" route="2">
    </vehicle>
      <vehicle id="veh7" type="Car5" depart="5.37486517084" route="2">
    </vehicle>
      <vehicle id="veh8" type="Car9" depart="5.47199197979" route="0">
    </vehicle>
      <vehicle id="veh9" type="Car2" depart="7.3802238939" route="3">
    </vehicle>
      <vehicle id="veh10" type="Car2" depart="7.48089324934" route="3">
    </vehicle>
</routes>
