<!-- number of vehicles:20 -->
<!-- generated on 2020-04-18 16:49:03.286463 by "cars.rou.xml -m 1 -r 1.4 -t 20" -->
<routes>
  <route id="0" edges="ne_to_nw nw_to_sw sw_to_se se_to_ne"/>
  <route id="1" edges="se_to_sw sw_to_nw nw_to_ne ne_to_se"/>
  <route id="2" edges="nw_to_sw sw_to_se se_to_ne ne_to_nw"/>
  <route id="3" edges="sw_to_nw nw_to_ne ne_to_se se_to_sw"/>
  <route id="4" edges="sw_to_se se_to_ne ne_to_nw nw_to_sw"/>
  <route id="5" edges="nw_to_ne ne_to_se se_to_sw sw_to_nw"/>

  <vType accel="4" decel="7.5" emergencyDecel="10" minGap="1.0" id="Car0" vClass="emergency"  maxSpeed="20.83"/>
  <vType accel="4" decel="7.5" emergencyDecel="10" minGap="1.0" id="Car1" maxSpeed="5.55"/>
  <vType accel="4" decel="7.5" emergencyDecel="7" minGap="1.0" id="Car2" maxSpeed="6.94"/>
  <vType accel="4" decel="7.5" emergencyDecel="10" minGap="1.0" id="Car3" maxSpeed="8.33"/>
  <vType accel="4" decel="7.5" emergencyDecel="10" minGap="1.0" id="Car4" maxSpeed="9.72"/>
  <vType accel="4" decel="7.5" emergencyDecel="10" minGap="1.0" id="Car5" maxSpeed="11.11"/>
  <vType accel="4" decel="7.5" emergencyDecel="10" minGap="1.0" id="Car6" maxSpeed="12.5"/>
  <vType accel="4" decel="7.5" emergencyDecel="10" minGap="1.0" id="Car7" maxSpeed="13.89"/>
  <vType accel="4" decel="7.5" emergencyDecel="10" minGap="1.0" id="Car8" maxSpeed="15.27"/>
  <vType accel="4" decel="7.5" emergencyDecel="10" minGap="1.0" id="Car9" maxSpeed="16.66"/>

      <vehicle id="veh1" type="Car2" depart="0.305337402498" route="0">
    </vehicle>
      <vehicle id="veh2" type="Car0" depart="0.600133874271" route="0">
    </vehicle>
      <vehicle id="veh3" type="Car2" depart="0.64994493787" route="1">
    </vehicle>
      <vehicle id="veh4" type="Car1" depart="0.76851800147" route="5">
    </vehicle>
      <vehicle id="veh5" type="Car5" depart="1.27469051452" route="3">
    </vehicle>
      <vehicle id="veh6" type="Car3" depart="1.37358402415" route="2">
    </vehicle>
      <vehicle id="veh7" type="Car5" depart="1.37486517084" route="2">
    </vehicle>
      <vehicle id="veh8" type="Car9" depart="2.47199197979" route="0">
    </vehicle>
      <vehicle id="veh9" type="Car2" depart="2.3802238939" route="3">
    </vehicle>
      <vehicle id="veh10" type="Car2" depart="2.48089324934" route="3">
    </vehicle>
      <vehicle id="veh11" type="Car4" depart="2.52374230514" route="4">
    </vehicle>
      <vehicle id="veh12" type="Car2" depart="2.68039033045" route="4">
    </vehicle>
      <vehicle id="veh13" type="Car8" depart="3.7260736113" route="0">
    </vehicle>
      <vehicle id="veh14" type="Car5" depart="3.87668718891" route="5">
    </vehicle>
      <vehicle id="veh15" type="Car7" depart="3.3751059437" route="4">
    </vehicle>
     <vehicle id="veh16" type="Car9" depart="3.0392872197" route="0">
    </vehicle>
      <vehicle id="veh17" type="Car5" depart="3.0993573071" route="2">
    </vehicle>
      <vehicle id="veh18" type="Car7" depart="3.6368142357" route="5">
    </vehicle>
      <vehicle id="veh19" type="Car2" depart="4.1847255129" route="1">
    </vehicle>
      <vehicle id="veh20" type="Car2" depart="4.9241824341" route="0">
    </vehicle>
  <vehicle id="veh21" type="Car2" depart="4.48089324934" route="3">
  </vehicle>
  <vehicle id="veh22" type="Car4" depart="4.52374230514" route="4">
  </vehicle>
  <vehicle id="veh23" type="Car2" depart="5.68039033045" route="4">
  </vehicle>
  <vehicle id="veh24" type="Car8" depart="5.7260736113" route="0">
  </vehicle>
  <vehicle id="veh25" type="Car5" depart="5.87668718891" route="5">
  </vehicle>
  <vehicle id="veh26" type="Car7" depart="5.3751059437" route="4">
  </vehicle>
  <vehicle id="veh27" type="Car9" depart="5.0392872197" route="0">
  </vehicle>
  <vehicle id="veh28" type="Car5" depart="6.0993573071" route="2">
  </vehicle>
  <vehicle id="veh29" type="Car7" depart="6.6368142357" route="5">
  </vehicle>
  <vehicle id="veh30" type="Car2" depart="6.1847255129" route="1">
  </vehicle>
  <vehicle id="veh31" type="Car2" depart="6.305337402498" route="0">
  </vehicle>
  <vehicle id="veh32" type="Car0" depart="6.600133874271" route="0">
  </vehicle>
  <vehicle id="veh33" type="Car2" depart="7.64994493787" route="1">
  </vehicle>
  <vehicle id="veh34" type="Car1" depart="7.76851800147" route="5">
  </vehicle>
  <vehicle id="veh35" type="Car5" depart="7.27469051452" route="3">
  </vehicle>
  <vehicle id="veh36" type="Car3" depart="7.37358402415" route="2">
  </vehicle>
  <vehicle id="veh37" type="Car5" depart="7.37486517084" route="2">
  </vehicle>
  <vehicle id="veh38" type="Car9" depart="7.47199197979" route="0">
  </vehicle>
  <vehicle id="veh39" type="Car2" depart="7.3802238939" route="3">
  </vehicle>
  <vehicle id="veh40" type="Car2" depart="7.48089324934" route="3">
  </vehicle>
  <vehicle id="veh41" type="Car4" depart="8.52374230514" route="4">
  </vehicle>
  <vehicle id="veh42" type="Car2" depart="8.68039033045" route="4">
  </vehicle>
  <vehicle id="veh43" type="Car8" depart="8.7260736113" route="0">
  </vehicle>
  <vehicle id="veh44" type="Car5" depart="8.87668718891" route="5">
  </vehicle>
  <vehicle id="veh45" type="Car7" depart="8.3751059437" route="4">
  </vehicle>
  <vehicle id="veh46" type="Car9" depart="8.0392872197" route="0">
  </vehicle>
  <vehicle id="veh47" type="Car5" depart="8.0993573071" route="2">
  </vehicle>
  <vehicle id="veh48" type="Car7" depart="8.6368142357" route="5">
  </vehicle>
  <vehicle id="veh49" type="Car2" depart="9.1847255129" route="1">
  </vehicle>
  <vehicle id="veh50" type="Car2" depart="9.9241824341" route="0">
  </vehicle>
  <vehicle id="veh51" type="Car2" depart="9.48089324934" route="3">
  </vehicle>
  <vehicle id="veh52" type="Car4" depart="9.52374230514" route="4">
  </vehicle>
  <vehicle id="veh53" type="Car2" depart="9.68039033045" route="4">
  </vehicle>
  <vehicle id="veh54" type="Car8" depart="9.7260736113" route="0">
  </vehicle>
  <vehicle id="veh55" type="Car5" depart="10.87668718891" route="5">
  </vehicle>
  <vehicle id="veh56" type="Car7" depart="10.3751059437" route="4">
  </vehicle>
  <vehicle id="veh57" type="Car9" depart="10.0392872197" route="0">
  </vehicle>
  <vehicle id="veh58" type="Car5" depart="10.0993573071" route="2">
  </vehicle>
  <vehicle id="veh59" type="Car7" depart="10.6368142357" route="5">
  </vehicle>
  <vehicle id="veh60" type="Car2" depart="10.1847255129" route="1">
  </vehicle>
  <vehicle id="veh61" type="Car2" depart="10.305337402498" route="0">
  </vehicle>
  <vehicle id="veh62" type="Car0" depart="11.600133874271" route="0">
  </vehicle>
  <vehicle id="veh63" type="Car2" depart="11.64994493787" route="1">
  </vehicle>
  <vehicle id="veh64" type="Car1" depart="11.76851800147" route="5">
  </vehicle>
  <vehicle id="veh65" type="Car5" depart="11.27469051452" route="3">
  </vehicle>
  <vehicle id="veh66" type="Car3" depart="11.37358402415" route="2">
  </vehicle>
  <vehicle id="veh67" type="Car5" depart="12.37486517084" route="2">
  </vehicle>
  <vehicle id="veh68" type="Car9" depart="12.47199197979" route="0">
  </vehicle>
  <vehicle id="veh69" type="Car2" depart="12.3802238939" route="3">
  </vehicle>
  <vehicle id="veh70" type="Car2" depart="12.48089324934" route="3">
  </vehicle>
  <vehicle id="veh71" type="Car4" depart="12.52374230514" route="4">
  </vehicle>
  <vehicle id="veh72" type="Car2" depart="12.68039033045" route="4">
  </vehicle>
  <vehicle id="veh73" type="Car8" depart="13.7260736113" route="0">
  </vehicle>
  <vehicle id="veh74" type="Car5" depart="13.87668718891" route="5">
  </vehicle>
  <vehicle id="veh75" type="Car7" depart="13.3751059437" route="4">
  </vehicle>
  <vehicle id="veh76" type="Car9" depart="13.0392872197" route="0">
  </vehicle>
  <vehicle id="veh77" type="Car5" depart="13.0993573071" route="2">
  </vehicle>
  <vehicle id="veh78" type="Car7" depart="13.6368142357" route="5">
  </vehicle>
  <vehicle id="veh79" type="Car2" depart="14.1847255129" route="1">
  </vehicle>
  <vehicle id="veh80" type="Car2" depart="14.9241824341" route="0">
  </vehicle>
  <vehicle id="veh81" type="Car2" depart="14.48089324934" route="3">
  </vehicle>
  <vehicle id="veh82" type="Car4" depart="14.52374230514" route="4">
  </vehicle>
  <vehicle id="veh83" type="Car2" depart="15.68039033045" route="4">
  </vehicle>
  <vehicle id="veh84" type="Car8" depart="15.7260736113" route="0">
  </vehicle>
  <vehicle id="veh85" type="Car5" depart="15.87668718891" route="5">
  </vehicle>
  <vehicle id="veh86" type="Car7" depart="15.3751059437" route="4">
  </vehicle>
  <vehicle id="veh87" type="Car9" depart="15.0392872197" route="0">
  </vehicle>
  <vehicle id="veh88" type="Car5" depart="16.0993573071" route="2">
  </vehicle>
  <vehicle id="veh89" type="Car7" depart="16.6368142357" route="5">
  </vehicle>
  <vehicle id="veh90" type="Car2" depart="16.1847255129" route="1">
  </vehicle>
  <vehicle id="veh91" type="Car2" depart="16.305337402498" route="0">
  </vehicle>
  <vehicle id="veh92" type="Car0" depart="16.600133874271" route="0">
  </vehicle>
  <vehicle id="veh93" type="Car2" depart="17.64994493787" route="1">
  </vehicle>
  <vehicle id="veh94" type="Car1" depart="17.76851800147" route="5">
  </vehicle>
  <vehicle id="veh95" type="Car5" depart="17.27469051452" route="3">
  </vehicle>
  <vehicle id="veh96" type="Car3" depart="17.37358402415" route="2">
  </vehicle>
  <vehicle id="veh97" type="Car5" depart="17.37486517084" route="2">
  </vehicle>
  <vehicle id="veh98" type="Car9" depart="17.47199197979" route="0">
  </vehicle>
  <vehicle id="veh99" type="Car2" depart="17.3802238939" route="3">
  </vehicle>
  <vehicle id="veh100" type="Car2" depart="17.48089324934" route="3">
  </vehicle>
  <vehicle id="veh101" type="Car4" depart="18.52374230514" route="4">
  </vehicle>
  <vehicle id="veh102" type="Car2" depart="18.68039033045" route="4">
  </vehicle>
  <vehicle id="veh103" type="Car8" depart="18.7260736113" route="0">
  </vehicle>
  <vehicle id="veh104" type="Car5" depart="18.87668718891" route="5">
  </vehicle>
  <vehicle id="veh105" type="Car7" depart="18.3751059437" route="4">
  </vehicle>
  <vehicle id="veh106" type="Car9" depart="18.0392872197" route="0">
  </vehicle>
  <vehicle id="veh107" type="Car5" depart="18.0993573071" route="2">
  </vehicle>
  <vehicle id="veh108" type="Car7" depart="18.6368142357" route="5">
  </vehicle>
  <vehicle id="veh109" type="Car2" depart="19.1847255129" route="1">
  </vehicle>
  <vehicle id="veh110" type="Car2" depart="19.9241824341" route="0">
  </vehicle>
  <vehicle id="veh111" type="Car2" depart="19.48089324934" route="3">
  </vehicle>
  <vehicle id="veh112" type="Car4" depart="19.52374230514" route="4">
  </vehicle>
  <vehicle id="veh113" type="Car2" depart="19.68039033045" route="4">
  </vehicle>
  <vehicle id="veh114" type="Car8" depart="19.7260736113" route="0">
  </vehicle>
  <vehicle id="veh115" type="Car5" depart="20.87668718891" route="5">
  </vehicle>
  <vehicle id="veh116" type="Car7" depart="20.3751059437" route="4">
  </vehicle>
  <vehicle id="veh117" type="Car9" depart="20.0392872197" route="0">
  </vehicle>
  <vehicle id="veh118" type="Car5" depart="20.0993573071" route="2">
  </vehicle>
  <vehicle id="veh119" type="Car7" depart="20.6368142357" route="5">
  </vehicle>
  <vehicle id="veh120" type="Car2" depart="20.1847255129" route="1">
  </vehicle>
</routes>
