<?xml version="1.0" encoding="UTF-8"?>

<!-- generated on 2023-07-14 16:13:32 by Eclipse SUMO netedit Version 1.18.0
<configuration xmlns:xsi="http://www.w3.org/2001/XMLSchema-instance" xsi:noNamespaceSchemaLocation="http://sumo.dlr.de/xsd/neteditConfiguration.xsd">

    <input>
        <sumo-net-file value="v2p_map.net.xml"/>
    </input>

    <output>
        <output-file value="v2p_map.net.xml"/>
    </output>

    <processing>
        <geometry.min-radius.fix.railways value="false"/>
        <geometry.max-grade.fix value="false"/>
        <offset.disable-normalization value="true"/>
        <lefthand value="0"/>
    </processing>

    <junctions>
        <no-internal-links value="false"/>
        <no-turnarounds value="true"/>
        <junctions.corner-detail value="5"/>
        <junctions.limit-turn-speed value="5.50"/>
        <rectangular-lane-cut value="0"/>
    </junctions>

    <pedestrian>
        <walkingareas value="0"/>
    </pedestrian>

</configuration>
-->

<net version="1.16" junctionCornerDetail="5" limitTurnSpeed="5.50" xmlns:xsi="http://www.w3.org/2001/XMLSchema-instance" xsi:noNamespaceSchemaLocation="http://sumo.dlr.de/xsd/net_file.xsd">

    <location netOffset="-393696.90,-4989356.84" convBoundary="608.98,1268.37,963.98,1787.43" origBoundary="7.649716,45.049873,7.666298,45.067157" projParameter="+proj=utm +zone=32 +ellps=WGS84 +datum=WGS84 +units=m +no_defs"/>

    <type id="highway.cycleway" priority="1" numLanes="1" speed="5.56" allow="bicycle" oneway="0" width="1.00"/>
    <type id="highway.footway" priority="1" numLanes="1" speed="2.78" allow="pedestrian" oneway="1" width="2.00"/>
    <type id="highway.residential" priority="3" numLanes="1" speed="13.89" disallow="tram rail_urban rail rail_electric rail_fast ship" oneway="0"/>
    <type id="highway.secondary" priority="11" numLanes="1" speed="27.78" disallow="tram rail_urban rail rail_electric rail_fast ship" oneway="0"/>
    <type id="highway.unclassified" priority="4" numLanes="1" speed="13.89" disallow="tram rail_urban rail rail_electric rail_fast ship" oneway="0"/>

    <edge id=":1719223322_0" function="internal">
        <lane id=":1719223322_0_0" index="0" allow="private emergency authority vip passenger hov taxi delivery evehicle" speed="8.30" length="0.30" shape="797.42,1651.48 797.28,1651.22"/>
    </edge>
    <edge id=":1780219359_0" function="internal">
        <lane id=":1780219359_0_0" index="0" allow="private emergency authority vip passenger hov taxi bus coach delivery truck trailer evehicle" speed="13.89" length="5.10" shape="647.07,1322.01 644.74,1317.52"/>
        <lane id=":1780219359_0_1" index="1" allow="private emergency authority vip passenger hov taxi bus coach delivery truck trailer evehicle" speed="13.89" length="5.10" shape="649.93,1320.58 647.56,1316.00"/>
    </edge>
    <edge id=":1780219359_c0" function="crossing" crossingEdges="cen_s_13">
        <lane id=":1780219359_c0_0" index="0" allow="pedestrian" speed="2.78" length="6.40" width="4.00" shape="644.28,1320.04 649.92,1317.00"/>
    </edge>
    <edge id=":1780219359_w0" function="walkingarea">
        <lane id=":1780219359_w0_0" index="0" allow="pedestrian" speed="2.78" length="1.62" width="4.00" shape="652.00,1317.71 651.05,1315.95 648.97,1315.24 650.87,1318.76"/>
    </edge>
    <edge id=":1780219359_w1" function="walkingarea">
        <lane id=":1780219359_w1_0" index="0" allow="pedestrian" speed="2.78" length="1.60" width="4.00" shape="645.23,1321.80 643.33,1318.28 642.70,1320.27 643.59,1322.06"/>
    </edge>
    <edge id=":1780219361_0" function="internal">
        <lane id=":1780219361_0_0" index="0" allow="private emergency authority vip passenger hov taxi bus coach delivery truck trailer evehicle" speed="13.89" length="5.07" shape="658.31,1310.34 660.65,1314.84"/>
        <lane id=":1780219361_0_1" index="1" allow="private emergency authority vip passenger hov taxi bus coach delivery truck trailer evehicle" speed="13.89" length="5.07" shape="655.47,1311.81 657.80,1316.31"/>
    </edge>
    <edge id=":1780219361_c0" function="crossing" crossingEdges="cen_n_3">
        <lane id=":1780219361_c0_0" index="0" allow="pedestrian" speed="2.78" length="6.40" width="4.00" shape="661.14,1312.33 655.46,1315.27"/>
    </edge>
    <edge id=":1780219361_w0" function="walkingarea">
        <lane id=":1780219361_w0_0" index="0" allow="pedestrian" speed="2.78" length="1.61" width="4.00" shape="660.22,1310.55 662.07,1314.10 662.68,1312.01 661.75,1310.24"/>
    </edge>
    <edge id=":1780219361_w1" function="walkingarea">
        <lane id=":1780219361_w1_0" index="0" allow="pedestrian" speed="2.78" length="1.59" width="4.00" shape="653.42,1314.67 654.37,1316.43 656.38,1317.05 654.54,1313.50"/>
    </edge>
    <edge id=":1780219377_0" function="internal">
        <lane id=":1780219377_0_0" index="0" allow="private emergency authority vip passenger hov taxi delivery evehicle" speed="8.30" length="5.34" shape="672.99,1302.66 675.46,1307.40"/>
    </edge>
    <edge id=":1780219377_c0" function="crossing" crossingEdges="dx_n_3">
        <lane id=":1780219377_c0_0" index="0" allow="pedestrian" speed="2.78" length="3.20" width="4.00" shape="675.81,1304.87 673.06,1306.50"/>
    </edge>
    <edge id=":1780219377_w0" function="walkingarea">
        <lane id=":1780219377_w0_0" index="0" allow="pedestrian" speed="2.78" length="1.77" width="4.00" shape="674.78,1303.15 676.83,1306.58 677.61,1304.96 677.09,1303.03"/>
    </edge>
    <edge id=":1780219377_w1" function="walkingarea">
        <lane id=":1780219377_w1_0" index="0" allow="pedestrian" speed="2.78" length="1.70" width="4.00" shape="670.90,1305.43 671.83,1307.20 674.08,1308.22 672.03,1304.78"/>
    </edge>
    <edge id=":1780623646_w0" function="walkingarea">
        <lane id=":1780623646_w0_0" index="0" allow="pedestrian" speed="2.78" length="4.05" width="2.00" shape="732.55,1541.12 734.36,1540.27 732.18,1535.73 730.39,1536.61 730.60,1537.44 730.53,1537.81 730.35,1538.14 730.06,1538.44 729.65,1538.70 730.59,1540.47 731.40,1540.23 731.74,1540.28 732.05,1540.44 732.32,1540.73"/>
    </edge>
    <edge id=":2498888369_0" function="internal">
        <lane id=":2498888369_0_0" index="0" allow="private emergency authority vip passenger hov taxi delivery evehicle" speed="8.30" length="5.45" shape="771.53,1601.54 769.03,1596.69"/>
    </edge>
    <edge id=":2498888369_1" function="internal">
        <lane id=":2498888369_1_0" index="0" disallow="all" speed="4.83" length="4.53" width="2.00" shape="771.53,1601.54 771.20,1600.47 771.35,1599.51 772.00,1598.65 773.13,1597.89"/>
    </edge>
    <edge id=":2498888369_c0" function="crossing" crossingEdges="sx_s_6">
        <lane id=":2498888369_c0_0" index="0" allow="pedestrian" speed="2.78" length="3.20" width="4.00" shape="768.52,1599.20 771.36,1597.74"/>
    </edge>
    <edge id=":2498888369_w0" function="walkingarea">
        <lane id=":2498888369_w0_0" index="0" allow="pedestrian" speed="2.78" length="1.78" width="4.00" shape="773.59,1598.78 772.68,1597.00 770.45,1595.96 772.28,1599.52"/>
    </edge>
    <edge id=":2498888369_w1" function="walkingarea">
        <lane id=":2498888369_w1_0" index="0" allow="pedestrian" speed="2.78" length="1.70" width="4.00" shape="769.43,1600.98 767.60,1597.42 766.83,1599.09 767.27,1601.04"/>
    </edge>
    <edge id=":2498888370_0" function="internal">
        <lane id=":2498888370_0_0" index="0" allow="private emergency authority vip passenger hov taxi bus coach delivery truck trailer evehicle" speed="13.89" length="5.19" shape="787.08,1593.55 784.62,1589.09"/>
        <lane id=":2498888370_0_1" index="1" allow="private emergency authority vip passenger hov taxi bus coach delivery truck trailer evehicle" speed="13.89" length="5.19" shape="789.92,1592.09 787.37,1587.46"/>
    </edge>
    <edge id=":2498888370_c0" function="crossing" crossingEdges="cen_s_6">
        <lane id=":2498888370_c0_0" index="0" allow="pedestrian" speed="2.78" length="6.40" width="4.00" shape="784.25,1591.62 789.77,1588.37"/>
    </edge>
    <edge id=":2498888370_w0" function="walkingarea">
        <lane id=":2498888370_w0_0" index="0" allow="pedestrian" speed="2.78" length="1.71" width="4.00" shape="791.95,1589.25 791.00,1587.49 788.75,1586.65 790.78,1590.10"/>
    </edge>
    <edge id=":2498888370_w1" function="walkingarea">
        <lane id=":2498888370_w1_0" index="0" allow="pedestrian" speed="2.78" length="1.61" width="4.00" shape="785.27,1593.34 783.24,1589.90 782.67,1591.88 783.58,1593.65"/>
    </edge>
    <edge id=":2498888371_0" function="internal">
        <lane id=":2498888371_0_0" index="0" allow="private emergency authority vip passenger hov taxi bus coach delivery truck trailer evehicle" speed="13.89" length="4.67" shape="799.84,1581.48 802.02,1585.64"/>
        <lane id=":2498888371_0_1" index="1" allow="private emergency authority vip passenger hov taxi bus coach delivery truck trailer evehicle" speed="13.89" length="4.67" shape="797.02,1582.99 799.17,1587.10"/>
    </edge>
    <edge id=":2498888371_c0" function="crossing" crossingEdges="cen_n_9">
        <lane id=":2498888371_c0_0" index="0" allow="pedestrian" speed="2.78" length="6.40" width="4.00" shape="802.53,1583.13 796.83,1586.05"/>
    </edge>
    <edge id=":2498888371_w0" function="walkingarea">
        <lane id=":2498888371_w0_0" index="0" allow="pedestrian" speed="2.78" length="1.61" width="4.00" shape="801.62,1581.35 803.44,1584.91 804.04,1582.80 803.12,1581.02"/>
    </edge>
    <edge id=":2498888371_w1" function="walkingarea">
        <lane id=":2498888371_w1_0" index="0" allow="pedestrian" speed="2.78" length="1.59" width="4.00" shape="794.79,1585.44 795.74,1587.20 797.74,1587.83 795.92,1584.27"/>
    </edge>
    <edge id=":2498888372_0" function="internal">
        <lane id=":2498888372_0_0" index="0" allow="private emergency authority vip passenger hov taxi delivery evehicle" speed="8.30" length="5.31" shape="825.25,1567.69 827.92,1572.28"/>
    </edge>
    <edge id=":2498888372_c0" function="crossing" crossingEdges="dx_n_10">
        <lane id=":2498888372_c0_0" index="0" allow="pedestrian" speed="2.78" length="3.20" width="4.00" shape="828.32,1569.75 825.54,1571.34"/>
    </edge>
    <edge id=":2498888372_w0" function="walkingarea">
        <lane id=":2498888372_w0_0" index="0" allow="pedestrian" speed="2.78" length="1.64" width="4.00" shape="827.32,1568.01 829.31,1571.48 829.95,1569.61 829.19,1567.76"/>
    </edge>
    <edge id=":2498888372_w1" function="walkingarea">
        <lane id=":2498888372_w1_0" index="0" allow="pedestrian" speed="2.78" length="1.77" width="4.00" shape="823.31,1570.49 824.23,1572.27 826.54,1573.08 824.55,1569.61"/>
    </edge>
    <edge id=":2498888377_0" function="internal">
        <lane id=":2498888377_0_0" index="0" allow="private emergency authority vip passenger hov taxi bus coach delivery truck trailer evehicle" speed="13.89" length="0.27" shape="789.03,1597.35 788.88,1597.08"/>
        <lane id=":2498888377_0_1" index="1" allow="private emergency authority vip passenger hov taxi bus coach delivery truck trailer evehicle" speed="13.89" length="0.27" shape="791.84,1595.82 791.73,1595.62"/>
    </edge>
    <edge id=":2498888378_0" function="internal">
        <lane id=":2498888378_0_0" index="0" allow="private emergency authority vip passenger hov taxi bus coach delivery truck trailer evehicle" speed="13.89" length="0.10" shape="799.69,1581.20 799.66,1581.13"/>
        <lane id=":2498888378_0_1" index="1" allow="private emergency authority vip passenger hov taxi bus coach delivery truck trailer evehicle" speed="13.89" length="0.10" shape="796.89,1582.74 796.83,1582.64"/>
    </edge>
    <edge id=":2498888382_0" function="internal">
        <lane id=":2498888382_0_0" index="0" allow="private emergency authority vip passenger hov taxi delivery evehicle" speed="8.30" length="0.10" shape="849.50,1640.71 849.50,1640.71"/>
    </edge>
    <edge id=":2498897026_w0" function="walkingarea">
        <lane id=":2498897026_w0_0" index="0" allow="pedestrian" speed="2.78" length="4.02" width="2.00" shape="692.19,1562.46 693.98,1561.57 693.75,1560.74 693.81,1560.38 693.97,1560.06 694.25,1559.77 694.64,1559.51 693.71,1557.75 692.89,1557.99 692.54,1557.94 692.21,1557.78 691.93,1557.51 691.67,1557.13 689.91,1558.07"/>
    </edge>
    <edge id=":2498897030_0" function="internal">
        <lane id=":2498897030_0_0" index="0" allow="private emergency authority vip passenger hov taxi delivery evehicle" speed="8.30" length="5.06" shape="704.91,1473.47 702.61,1468.95"/>
    </edge>
    <edge id=":2498897030_c0" function="crossing" crossingEdges="sx_s_9">
        <lane id=":2498897030_c0_0" index="0" allow="pedestrian" speed="2.78" length="3.20" width="4.00" shape="702.11,1471.47 704.95,1470.00"/>
    </edge>
    <edge id=":2498897030_w0" function="walkingarea">
        <lane id=":2498897030_w0_0" index="0" allow="pedestrian" speed="2.78" length="1.59" width="4.00" shape="706.99,1470.61 706.05,1468.85 704.03,1468.22 705.87,1471.77"/>
    </edge>
    <edge id=":2498897030_w1" function="walkingarea">
        <lane id=":2498897030_w1_0" index="0" allow="pedestrian" speed="2.78" length="0.76" width="4.00" shape="703.03,1473.24 701.19,1469.69 701.42,1471.32 702.37,1473.08"/>
    </edge>
    <edge id=":2498897031_0" function="internal">
        <lane id=":2498897031_0_0" index="0" allow="private emergency authority vip passenger hov taxi bus coach delivery truck trailer evehicle" speed="13.89" length="5.04" shape="720.83,1464.98 718.46,1460.51"/>
        <lane id=":2498897031_0_1" index="1" allow="private emergency authority vip passenger hov taxi bus coach delivery truck trailer evehicle" speed="13.89" length="5.04" shape="723.65,1463.47 721.30,1459.03"/>
    </edge>
    <edge id=":2498897031_c0" function="crossing" crossingEdges="cen_s_9">
        <lane id=":2498897031_c0_0" index="0" allow="pedestrian" speed="2.78" length="6.40" width="4.00" shape="717.97,1463.02 723.64,1460.06"/>
    </edge>
    <edge id=":2498897031_w0" function="walkingarea">
        <lane id=":2498897031_w0_0" index="0" allow="pedestrian" speed="2.78" length="1.59" width="4.00" shape="725.68,1460.68 724.74,1458.92 722.72,1458.29 724.57,1461.84"/>
    </edge>
    <edge id=":2498897031_w1" function="walkingarea">
        <lane id=":2498897031_w1_0" index="0" allow="pedestrian" speed="2.78" length="1.60" width="4.00" shape="718.89,1464.79 717.04,1461.24 716.43,1463.33 717.37,1465.10"/>
    </edge>
    <edge id=":2498897032_0" function="internal">
        <lane id=":2498897032_0_0" index="0" allow="private emergency authority vip passenger hov taxi bus coach delivery truck trailer evehicle" speed="13.89" length="5.10" shape="732.41,1453.15 734.72,1457.73"/>
        <lane id=":2498897032_0_1" index="1" allow="private emergency authority vip passenger hov taxi bus coach delivery truck trailer evehicle" speed="13.89" length="5.10" shape="729.57,1454.62 731.86,1459.15"/>
    </edge>
    <edge id=":2498897032_c0" function="crossing" crossingEdges="cen_n_5">
        <lane id=":2498897032_c0_0" index="0" allow="pedestrian" speed="2.78" length="6.40" width="4.00" shape="735.27,1455.23 729.54,1458.06"/>
    </edge>
    <edge id=":2498897032_w0" function="walkingarea">
        <lane id=":2498897032_w0_0" index="0" allow="pedestrian" speed="2.78" length="1.65" width="4.00" shape="734.39,1453.43 736.16,1457.02 736.77,1454.82 735.85,1453.05"/>
    </edge>
    <edge id=":2498897032_w1" function="walkingarea">
        <lane id=":2498897032_w1_0" index="0" allow="pedestrian" speed="2.78" length="1.60" width="4.00" shape="727.49,1457.45 728.43,1459.22 730.42,1459.86 728.65,1456.27"/>
    </edge>
    <edge id=":2498897033_0" function="internal">
        <lane id=":2498897033_0_0" index="0" allow="private emergency authority vip passenger hov taxi delivery evehicle" speed="8.30" length="5.11" shape="758.65,1439.47 761.05,1443.99"/>
    </edge>
    <edge id=":2498897033_c0" function="crossing" crossingEdges="dx_n_5">
        <lane id=":2498897033_c0_0" index="0" allow="pedestrian" speed="2.78" length="3.20" width="4.00" shape="758.15,1441.99 760.99,1440.51"/>
    </edge>
    <edge id=":2498897033_w0" function="walkingarea">
        <lane id=":2498897033_w0_0" index="0" allow="pedestrian" speed="2.78" length="1.70" width="4.00" shape="763.11,1441.29 762.28,1439.47 760.07,1438.74 761.91,1442.29"/>
    </edge>
    <edge id=":2498897033_w1" function="walkingarea">
        <lane id=":2498897033_w1_0" index="0" allow="pedestrian" speed="2.78" length="1.58" width="4.00" shape="759.07,1443.76 757.23,1440.21 756.59,1442.24 757.52,1444.01"/>
    </edge>
    <edge id=":250689290_0" function="internal">
        <lane id=":250689290_0_0" index="0" allow="private emergency authority vip passenger hov taxi delivery evehicle" speed="8.30" length="0.27" shape="882.80,1703.09 882.92,1703.33"/>
    </edge>
    <edge id=":2903210743_0" function="internal">
        <lane id=":2903210743_0_0" index="0" allow="private emergency authority vip passenger hov taxi delivery evehicle" speed="8.30" length="0.30" shape="841.23,1734.50 841.09,1734.24"/>
    </edge>
    <edge id=":2903319163_0" function="internal">
        <lane id=":2903319163_0_0" index="0" allow="private emergency authority vip passenger hov taxi bus coach delivery truck trailer evehicle" speed="13.89" length="0.30" shape="880.62,1772.86 880.48,1772.60"/>
        <lane id=":2903319163_0_1" index="1" allow="private emergency authority vip passenger hov taxi bus coach delivery truck trailer evehicle" speed="13.89" length="0.30" shape="883.44,1771.34 883.30,1771.08"/>
    </edge>
    <edge id=":2903319164_0" function="internal">
        <lane id=":2903319164_0_0" index="0" allow="private emergency authority vip passenger hov taxi bus coach delivery truck trailer evehicle" speed="13.89" length="0.30" shape="893.93,1765.56 894.06,1765.82"/>
        <lane id=":2903319164_0_1" index="1" allow="private emergency authority vip passenger hov taxi bus coach delivery truck trailer evehicle" speed="13.89" length="0.30" shape="891.08,1767.01 891.22,1767.28"/>
    </edge>
    <edge id=":2903328711_w0" function="walkingarea">
        <lane id=":2903328711_w0_0" index="0" allow="pedestrian" speed="2.78" length="3.67" width="2.00" shape="700.60,1475.71 702.39,1474.83 702.17,1473.97 702.22,1473.60 702.40,1473.26 702.68,1472.96 703.08,1472.70 702.13,1470.94 701.32,1471.18 700.97,1471.14 700.65,1470.98 700.37,1470.70 700.12,1470.32 698.35,1471.24 698.58,1472.06 698.53,1472.41 698.36,1472.73 698.09,1473.01 697.69,1473.26 698.60,1475.04 699.42,1474.81 699.77,1474.87 700.08,1475.04 700.36,1475.32"/>
    </edge>
    <edge id=":2903328714_0" function="internal">
        <lane id=":2903328714_0_0" index="0" allow="private emergency authority vip passenger hov taxi delivery evehicle" speed="8.30" length="7.89" shape="632.30,1331.17 631.35,1329.40 630.11,1327.92 628.60,1326.72 626.79,1325.81"/>
    </edge>
    <edge id=":2903328714_1" function="internal">
        <lane id=":2903328714_1_0" index="0" allow="private emergency authority vip passenger hov taxi delivery evehicle" speed="7.65" length="10.82" shape="637.38,1327.50 634.27,1327.45 631.96,1327.30 629.71,1326.84 626.79,1325.81"/>
    </edge>
    <edge id=":2903328714_c0" function="crossing" crossingEdges="sx_s_12">
        <lane id=":2903328714_c0_0" index="0" allow="pedestrian" speed="2.78" length="3.20" width="4.00" shape="628.06,1328.04 629.24,1325.06"/>
    </edge>
    <edge id=":2903328714_w0" function="walkingarea">
        <lane id=":2903328714_w0_0" index="0" allow="pedestrian" speed="2.78" length="7.62" width="4.00" shape="637.26,1325.20 636.38,1323.41 627.38,1324.32 629.41,1325.08 630.96,1325.54 632.27,1325.77 633.61,1325.86 635.24,1325.87"/>
    </edge>
    <edge id=":2903328714_w1" function="walkingarea">
        <lane id=":2903328714_w1_0" index="0" allow="pedestrian" speed="2.78" length="1.78" width="4.00" shape="626.20,1327.30 626.42,1328.48 627.35,1330.25 630.32,1330.78 629.71,1329.87 628.99,1329.07 628.17,1328.37 627.24,1327.78"/>
    </edge>
    <edge id=":2911388360_0" function="internal">
        <lane id=":2911388360_0_0" index="0" allow="private emergency authority vip passenger hov taxi delivery evehicle" speed="8.30" length="0.30" shape="780.42,1618.55 780.28,1618.29"/>
    </edge>
    <edge id=":438042379_0" function="internal">
        <lane id=":438042379_0_0" index="0" allow="private emergency authority vip passenger hov taxi delivery evehicle" speed="8.30" length="0.93" shape="848.67,1748.11 848.44,1747.97 848.29,1747.85 848.17,1747.70 848.04,1747.46"/>
    </edge>
    <edge id=":443089069_0" function="internal">
        <lane id=":443089069_0_0" index="0" allow="private emergency authority vip passenger hov taxi delivery evehicle" speed="8.30" length="0.24" shape="875.58,1688.69 875.69,1688.91"/>
    </edge>
    <edge id=":443101912_0" function="internal">
        <lane id=":443101912_0_0" index="0" allow="private emergency authority vip passenger hov taxi delivery evehicle" speed="8.30" length="10.99" shape="666.41,1289.89 671.46,1299.66"/>
    </edge>
    <edge id=":443101912_1" function="internal">
        <lane id=":443101912_1_0" index="0" allow="private emergency authority vip passenger hov taxi bus coach delivery truck trailer evehicle" speed="6.54" length="8.94" shape="666.41,1289.89 667.22,1292.17 667.10,1294.19 666.06,1295.94 664.10,1297.43"/>
    </edge>
    <edge id=":446017746_0" function="internal">
        <lane id=":446017746_0_0" index="0" allow="private emergency authority vip passenger hov taxi bus coach delivery truck trailer evehicle" speed="13.89" length="11.26" shape="643.61,1315.43 638.34,1305.45"/>
        <lane id=":446017746_0_1" index="1" allow="private emergency authority vip passenger hov taxi bus coach delivery truck trailer evehicle" speed="13.89" length="11.26" shape="646.43,1313.91 641.18,1303.98"/>
    </edge>
    <edge id=":446017746_2" function="internal">
        <lane id=":446017746_2_0" index="0" allow="private emergency authority vip passenger hov taxi bus coach delivery truck trailer evehicle" speed="6.11" length="8.13" shape="647.70,1306.75 645.83,1307.43 644.12,1307.19 642.57,1306.04 641.18,1303.98"/>
    </edge>
    <edge id=":446017747_0" function="internal">
        <lane id=":446017747_0_0" index="0" allow="private emergency authority vip passenger hov taxi bus coach delivery truck trailer evehicle" speed="6.63" length="9.18" shape="659.32,1300.11 657.35,1301.63 656.31,1303.43 656.21,1305.52 657.05,1307.90"/>
    </edge>
    <edge id=":446017747_1" function="internal">
        <lane id=":446017747_1_0" index="0" allow="private emergency authority vip passenger hov taxi bus coach delivery truck trailer evehicle" speed="7.00" length="13.18" shape="659.32,1300.11 647.87,1306.65"/>
    </edge>
    <edge id=":446017747_2" function="internal">
        <lane id=":446017747_2_0" index="0" allow="private emergency authority vip passenger hov taxi bus coach delivery truck trailer evehicle" speed="13.89" length="11.34" shape="652.09,1297.78 657.05,1307.90"/>
        <lane id=":446017747_2_1" index="1" allow="private emergency authority vip passenger hov taxi bus coach delivery truck trailer evehicle" speed="13.89" length="11.34" shape="649.18,1299.12 654.21,1309.37"/>
    </edge>
    <edge id=":446017747_4" function="internal">
        <lane id=":446017747_4_0" index="0" allow="private emergency authority vip passenger hov taxi bus coach delivery truck trailer evehicle" speed="6.55" length="8.50" shape="649.18,1299.12 650.03,1301.59 650.09,1303.67 649.37,1305.35 647.87,1306.65"/>
    </edge>
    <edge id=":5295585184_0" function="internal">
        <lane id=":5295585184_0_0" index="0" allow="private emergency authority vip passenger hov taxi delivery evehicle" speed="8.30" length="0.25" shape="714.87,1378.12 714.99,1378.34"/>
    </edge>
    <edge id=":7001164369_0" function="internal">
        <lane id=":7001164369_0_0" index="0" allow="private emergency authority vip passenger hov taxi bus coach delivery truck trailer evehicle" speed="13.89" length="0.24" shape="798.30,1578.66 798.39,1578.83"/>
        <lane id=":7001164369_0_1" index="1" allow="private emergency authority vip passenger hov taxi bus coach delivery truck trailer evehicle" speed="13.89" length="0.24" shape="795.45,1580.10 795.59,1580.37"/>
    </edge>
    <edge id=":7001164370_0" function="internal">
        <lane id=":7001164370_0_0" index="0" allow="private emergency authority vip passenger hov taxi bus coach delivery truck trailer evehicle" speed="13.89" length="0.26" shape="783.40,1587.02 783.21,1586.67"/>
        <lane id=":7001164370_0_1" index="1" allow="private emergency authority vip passenger hov taxi bus coach delivery truck trailer evehicle" speed="13.89" length="0.26" shape="786.16,1585.39 786.09,1585.28"/>
    </edge>
    <edge id=":7001164371_0" function="internal">
        <lane id=":7001164371_0_0" index="0" allow="private emergency authority vip passenger hov taxi bus coach delivery truck trailer evehicle" speed="13.89" length="0.28" shape="791.59,1602.06 791.47,1601.84"/>
        <lane id=":7001164371_0_1" index="1" allow="private emergency authority vip passenger hov taxi bus coach delivery truck trailer evehicle" speed="13.89" length="0.28" shape="794.42,1600.59 794.28,1600.31"/>
    </edge>
    <edge id=":7001164372_0" function="internal">
        <lane id=":7001164372_0_0" index="0" allow="private emergency authority vip passenger hov taxi bus coach delivery truck trailer evehicle" speed="13.89" length="0.30" shape="806.34,1594.09 806.47,1594.36"/>
        <lane id=":7001164372_0_1" index="1" allow="private emergency authority vip passenger hov taxi bus coach delivery truck trailer evehicle" speed="13.89" length="0.30" shape="803.49,1595.55 803.62,1595.81"/>
    </edge>
    <edge id=":7001558585_0" function="internal">
        <lane id=":7001558585_0_0" index="0" allow="private emergency authority vip passenger hov taxi bus coach delivery truck trailer evehicle" speed="13.89" length="0.29" shape="736.11,1460.53 736.23,1460.78"/>
        <lane id=":7001558585_0_1" index="1" allow="private emergency authority vip passenger hov taxi bus coach delivery truck trailer evehicle" speed="13.89" length="0.29" shape="733.24,1461.95 733.38,1462.23"/>
    </edge>
    <edge id=":7001558586_0" function="internal">
        <lane id=":7001558586_0_0" index="0" allow="private emergency authority vip passenger hov taxi bus coach delivery truck trailer evehicle" speed="13.89" length="0.10" shape="727.97,1444.60 727.97,1444.60"/>
        <lane id=":7001558586_0_1" index="1" allow="private emergency authority vip passenger hov taxi bus coach delivery truck trailer evehicle" speed="13.89" length="0.10" shape="725.13,1446.08 725.13,1446.08"/>
    </edge>
    <edge id=":7001558587_0" function="internal">
        <lane id=":7001558587_0_0" index="0" allow="private emergency authority vip passenger hov taxi bus coach delivery truck trailer evehicle" speed="13.89" length="0.10" shape="713.92,1451.78 713.92,1451.78"/>
        <lane id=":7001558587_0_1" index="1" allow="private emergency authority vip passenger hov taxi bus coach delivery truck trailer evehicle" speed="13.89" length="0.10" shape="716.76,1450.30 716.76,1450.30"/>
    </edge>
    <edge id=":7001558588_0" function="internal">
        <lane id=":7001558588_0_0" index="0" allow="private emergency authority vip passenger hov taxi delivery evehicle" speed="8.30" length="0.28" shape="823.85,1565.32 823.99,1565.56"/>
    </edge>
    <edge id=":7001558589_0" function="internal">
        <lane id=":7001558589_0_0" index="0" allow="private emergency authority vip passenger hov taxi delivery evehicle" speed="8.30" length="0.29" shape="832.54,1580.32 832.68,1580.56"/>
    </edge>
    <edge id=":7001558590_0" function="internal">
        <lane id=":7001558590_0_0" index="0" allow="private emergency authority vip passenger hov taxi delivery evehicle" speed="8.30" length="0.30" shape="776.12,1610.32 775.98,1610.06"/>
    </edge>
    <edge id=":7001558591_0" function="internal">
        <lane id=":7001558591_0_0" index="0" allow="private emergency authority vip passenger hov taxi delivery evehicle" speed="8.30" length="0.30" shape="768.08,1594.83 767.94,1594.57"/>
    </edge>
    <edge id=":7001558593_w0" function="walkingarea">
        <lane id=":7001558593_w0_0" index="0" allow="pedestrian" speed="2.78" length="0.30" width="2.00" shape="693.71,1462.28 695.49,1461.36 695.35,1461.10 693.57,1462.02"/>
    </edge>
    <edge id=":7001558596_0" function="internal">
        <lane id=":7001558596_0_0" index="0" allow="private emergency authority vip passenger hov taxi delivery evehicle" speed="8.30" length="0.30" shape="698.00,1460.04 697.86,1459.78"/>
    </edge>
    <edge id=":7001558597_0" function="internal">
        <lane id=":7001558597_0_0" index="0" allow="private emergency authority vip passenger hov taxi delivery evehicle" speed="8.30" length="0.29" shape="706.21,1476.04 706.07,1475.78"/>
    </edge>
    <edge id=":7001558598_0" function="internal">
        <lane id=":7001558598_0_0" index="0" allow="private emergency authority vip passenger hov taxi delivery evehicle" speed="8.30" length="0.30" shape="754.33,1431.13 754.47,1431.39"/>
    </edge>
    <edge id=":7001558599_0" function="internal">
        <lane id=":7001558599_0_0" index="0" allow="private emergency authority vip passenger hov taxi delivery evehicle" speed="8.30" length="0.30" shape="762.66,1446.95 762.80,1447.21"/>
    </edge>
    <edge id=":7013345113_0" function="internal">
        <lane id=":7013345113_0_0" index="0" allow="private emergency authority vip passenger hov taxi delivery evehicle" speed="8.30" length="0.10" shape="787.48,1506.52 787.48,1506.52"/>
    </edge>
    <edge id=":7069130731_0" function="internal">