<?xml version="1.0" encoding="UTF-8"?>

<!-- generated on 2023-03-25 17:00:49.615080 by randomTrips.py UNKNOWN
<configuration>
    <begin value="0"/>
    <end value="100"/>
    <net-file value="v2p_map.net.xml"/>
    <period value="0.5"/>
    <route-file value="vehicles.rou.xml"/>
    <output-trip-file value="vehicles.trips.xml"/>
    <validate value="True"/>
</configuration>
-->

<!-- generated on 2023-03-25 17:00:49 by Eclipse SUMO duarouter Version 1.16.0
<configuration xmlns:xsi="http://www.w3.org/2001/XMLSchema-instance" xsi:noNamespaceSchemaLocation="http://sumo.dlr.de/xsd/duarouterConfiguration.xsd">

    <input>
        <net-file value="v2p_map.net.xml"/>
        <route-files value="vehicles.trips.xml"/>
    </input>

    <output>
        <output-file value="vehicles.rou.xml"/>
        <alternatives-output value="NUL"/>
    </output>

    <time>
        <begin value="0"/>
        <end value="100"/>
    </time>

    <report>
        <no-warnings value="true"/>
        <ignore-errors value="true"/>
        <no-step-log value="true"/>
    </report>

</configuration>
-->

<routes>
    <vehicle id="veh0" depart="0">
        <route edges="cen_s_0 cen_s_1 cen_s_2 cen_s_3 cen_s_4 cen_s_5 cen_s_6 cen_s_7 cen_s_8 cen_s_9 cen_s_10 cen_s_11 cen_s_12 cen_s_13 cen_s_14 cen_s_15"/>
    </vehicle>
    <vehicle id="veh1" depart="1">
        <route edges="dx_n_0 dx_n_1 dx_n_2 dx_n_3 dx_n_4 dx_n_5 dx_n_6 dx_n_7 dx_n_8 dx_n_9 dx_n_10 dx_n_11 dx_n_12 dx_n_13 dx_n_14 dx_n_15 dx_n_16"/>
    </vehicle>
    <vehicle id="veh2" depart="3">
        <route edges="cen_n_0 cen_n_1 cen_n_2 cen_n_3 cen_n_4 cen_n_5 cen_n_6 cen_n_7 cen_n_8 cen_n_9 cen_n_10 cen_n_11 cen_n_12"/>
    </vehicle>
    <vehicle id="veh3" depart="5">
        <route edges="cen_s_0 cen_s_1 cen_s_2 sx_s_0 sx_s_1 sx_s_2 sx_s_3 sx_s_4 sx_s_5 sx_s_6 sx_s_7 sx_s_8 sx_s_9 sx_s_10 sx_s_11 sx_s_12"/>
    </vehicle>
    <vehicle id="veh4" depart="7">
        <route edges="dx_n_0 dx_n_1 dx_n_2 dx_n_3 dx_n_4 dx_n_5 dx_n_6 dx_n_7 dx_n_8 dx_n_9 dx_n_10 dx_n_11 dx_n_12 dx_n_13 dx_n_14 dx_n_15 dx_n_16"/>
    </vehicle>
    <vehicle id="veh5" depart="8">
        <route edges="cen_s_0 cen_s_1 cen_s_2 cen_s_3 cen_s_4 cen_s_5 cen_s_6 cen_s_7 cen_s_8 cen_s_9 cen_s_10 cen_s_11 cen_s_12 cen_s_13 cen_s_14 cen_s_15"/>
    </vehicle>
    <vehicle id="veh6" depart="11">
        <route edges="cen_n_0 cen_n_1 cen_n_2 cen_n_3 cen_n_4 cen_n_5 cen_n_6 cen_n_7 cen_n_8 cen_n_9 cen_n_10 cen_n_11 cen_n_12"/>
    </vehicle>
    <vehicle id="veh7" depart="13">
        <route edges="cen_s_0 cen_s_1 cen_s_2 sx_s_0 sx_s_1 sx_s_2 sx_s_3 sx_s_4 sx_s_5 sx_s_6 sx_s_7 sx_s_8 sx_s_9 sx_s_10 sx_s_11 sx_s_12"/>
    </vehicle>
    <vehicle id="veh8" depart="15">
        <route edges="dx_n_0 dx_n_1 dx_n_2 dx_n_3 dx_n_4 dx_n_5 dx_n_6 dx_n_7 dx_n_8 dx_n_9 dx_n_10 dx_n_11 dx_n_12 dx_n_13 dx_n_14 dx_n_15 dx_n_16"/>
    </vehicle>
    <vehicle id="veh9" depart="20">
        <route edges="dx_n_0 dx_n_1 dx_to_sx_0 cen_n_2 cen_n_3 cen_n_4 cen_n_5 cen_n_6 cen_n_7 cen_n_8 cen_n_9 cen_n_10 cen_n_11 cen_n_12"/>
    </vehicle>
    <vehicle id="veh10" depart="23">
        <route edges="cen_s_0 cen_s_1 cen_s_2 sx_s_0 sx_s_1 sx_s_2 sx_s_3 sx_s_4 sx_s_5 sx_s_6 sx_s_7 sx_s_8 sx_s_9 sx_s_10 sx_s_11 sx_s_12"/>
    </vehicle>
    <vehicle id="veh11" depart="28">
        <route edges="dx_n_0 dx_n_1 dx_to_sx_0 cen_n_2 cen_n_3 cen_n_4 cen_n_5 cen_n_6 cen_n_7 cen_n_8 cen_n_9 cen_n_10 cen_n_11 cen_n_12"/>
    </vehicle>
    <vehicle id="veh12" depart="30.50">
        <route edges="cen_s_0 cen_s_1 cen_s_2 cen_s_3 cen_s_4 cen_s_5 cen_s_6 cen_s_7 cen_s_8 cen_s_9 cen_s_10 cen_to_sx sx_s_12"/>
    </vehicle>
    <vehicle id="veh13" depart="34.50">
        <route edges="cen_s_0 cen_s_1 cen_s_2 cen_s_3 cen_s_4 cen_s_5 cen_s_6 cen_s_7 cen_s_8 cen_s_9 cen_s_10 cen_s_11 cen_s_12 cen_s_13 cen_s_14 cen_s_15"/>
    </vehicle>
    <vehicle id="veh14" depart="35.50">
        <route edges="cen_n_0 cen_n_1 cen_n_2 cen_n_3 cen_n_4 cen_n_5 cen_n_6 cen_n_7 cen_n_8 cen_n_9 cen_n_10 cen_n_11 cen_n_12"/>
    </vehicle>
    <vehicle id="veh15" depart="39">
        <route edges="cen_s_0 cen_s_1 cen_s_2 sx_s_0 sx_s_1 sx_s_2 sx_s_3 sx_s_4 sx_s_5 sx_s_6 sx_s_7 sx_s_8 sx_s_9 sx_s_10 sx_s_11 sx_s_12"/>
    </vehicle>
    <vehicle id="veh16" depart="40.50">
        <route edges="dx_n_0 dx_n_1 dx_n_2 dx_n_3 dx_n_4 dx_n_5 dx_n_6 dx_n_7 dx_n_8 dx_n_9 dx_n_10 dx_n_11 dx_n_12 dx_n_13 dx_n_14 dx_n_15 dx_n_16"/>
    </vehicle>
    <vehicle id="veh17" depart="41">
        <route edges="cen_s_0 cen_s_1 cen_s_2 cen_s_3 cen_s_4 cen_s_5 cen_s_6 cen_s_7 cen_s_8 cen_s_9 cen_s_10 cen_s_11 cen_s_12 cen_s_13 cen_s_14 cen_s_15"/>
    </vehicle>
    <vehicle id="veh18" depart="43.50">
        <route edges="cen_n_0 cen_n_1 cen_n_2 cen_n_3 cen_n_4 cen_n_5 cen_n_6 cen_n_7 cen_n_8 cen_n_9 cen_n_10 cen_n_11 cen_n_12"/>
    </vehicle>
    <vehicle id="veh19" depart="47">
        <route edges="cen_s_0 cen_s_1 cen_s_2 sx_s_0 sx_s_1 sx_s_2 sx_s_3 sx_s_4 sx_s_5 sx_s_6 sx_s_7 sx_s_8 sx_s_9 sx_s_10 sx_s_11 sx_s_12"/>
    </vehicle>
    <vehicle id="veh20" depart="50">
        <route edges="dx_n_0 dx_n_1 dx_n_2 dx_n_3 dx_n_4 dx_n_5 dx_n_6 dx_n_7 dx_n_8 dx_n_9 dx_n_10 dx_n_11 dx_n_12 dx_n_13 dx_n_14 dx_n_15 dx_n_16"/>
    </vehicle>
    <vehicle id="veh21" depart="54.50">
        <route edges="cen_s_0 cen_s_1 cen_s_2 cen_s_3 cen_s_4 cen_s_5 cen_s_6 cen_s_7 cen_s_8 cen_s_9 cen_s_10 cen_s_11 cen_s_12 cen_s_13 cen_s_14 cen_s_15"/>
    </vehicle>
    <vehicle id="veh22" depart="57">
        <route edges="cen_n_0 cen_n_1 cen_n_2 cen_n_3 cen_n_4 cen_n_5 cen_n_6 cen_n_7 cen_n_8 cen_n_9 cen_n_10 cen_n_11 cen_n_12"/>
    </vehicle>
    <vehicle id="veh23" depart="61.50">
        <route edges="cen_s_0 cen_s_1 cen_s_2 sx_s_0 sx_s_1 sx_s_2 sx_s_3 sx_s_4 sx_s_5 sx_s_6 sx_s_7 sx_s_8 sx_s_9 sx_s_10 sx_s_11 sx_s_12"/>
    </vehicle>
    <vehicle id="veh24" depart="65.50">
        <route edges="dx_n_0 dx_n_1 dx_n_2 dx_n_3 dx_n_4 dx_n_5 dx_n_6 dx_n_7 dx_n_8 dx_n_9 dx_n_10 dx_n_11 dx_n_12 dx_n_13 dx_n_14 dx_n_15 dx_n_16"/>
    </vehicle>
    <vehicle id="veh25" depart="70">
        <route edges="cen_s_0 cen_s_1 cen_s_2 cen_s_3 cen_s_4 cen_s_5 cen_s_6 cen_s_7 cen_s_8 cen_s_9 cen_s_10 cen_to_sx sx_s_12"/>
    </vehicle>
    <vehicle id="veh26" depart="71.50">
        <route edges="cen_n_0 cen_n_1 cen_n_2 cen_n_3 cen_n_4 cen_n_5 cen_n_6 cen_n_7 cen_n_8 cen_n_9 cen_n_10 cen_n_11 cen_n_12"/>
    </vehicle>
    <vehicle id="veh27" depart="76.50">
        <route edges="cen_n_0 cen_n_1 cen_n_2 cen_n_3 cen_n_4 cen_n_5 cen_n_6 cen_n_7 cen_n_8 cen_n_9 cen_n_10 cen_n_11 cen_n_12"/>
    </vehicle>
    <vehicle id="veh28" depart="84">
        <route edges="cen_s_0 cen_s_1 cen_s_2 cen_s_3 cen_s_4 cen_s_5 cen_s_6 cen_s_7 cen_s_8 cen_s_9 cen_s_10 cen_s_11 cen_s_12 cen_s_13 cen_s_14 cen_s_15"/>
    </vehicle>
    <vehicle id="veh29" depart="92">
        <route edges="dx_n_0 dx_n_1 dx_n_2 dx_n_3 dx_n_4 dx_n_5 dx_n_6 dx_n_7 dx_n_8 dx_n_9 dx_n_10 dx_n_11 dx_n_12 dx_n_13 dx_n_14 dx_n_15 dx_n_16"/>
    </vehicle>
    <vehicle id="veh30" depart="101">
        <route edges="cen_n_0 cen_n_1 cen_n_2 cen_n_3 cen_n_4 cen_n_5 cen_n_6 cen_n_7 cen_n_8 cen_n_9 cen_n_10 cen_n_11 cen_n_12"/>
    </vehicle>
    <vehicle id="veh31" depart="105">
        <route edges="cen_s_0 cen_s_1 cen_s_2 sx_s_0 sx_s_1 sx_s_2 sx_s_3 sx_s_4 sx_s_5 sx_s_6 sx_s_7 sx_s_8 sx_s_9 sx_s_10 sx_s_11 sx_s_12"/>
    </vehicle>
    <vehicle id="veh32" depart="107">
        <route edges="dx_n_0 dx_n_1 dx_n_2 dx_n_3 dx_n_4 dx_n_5 dx_n_6 dx_n_7 dx_n_8 dx_n_9 dx_n_10 dx_n_11 dx_n_12 dx_n_13 dx_n_14 dx_n_15 dx_n_16"/>
    </vehicle>
    <vehicle id="veh33" depart="114">
        <route edges="cen_s_0 cen_s_1 cen_s_2 cen_s_3 cen_s_4 cen_s_5 cen_s_6 cen_s_7 cen_s_8 cen_s_9 cen_s_10 cen_s_11 cen_s_12 cen_s_13 cen_s_14 cen_s_15"/>
    </vehicle>
    <vehicle id="veh34" depart="119">
        <route edges="cen_n_0 cen_n_1 cen_n_2 cen_n_3 cen_n_4 cen_n_5 cen_n_6 cen_n_7 cen_n_8 cen_n_9 cen_n_10 cen_n_11 cen_n_12"/>
    </vehicle>
    <vehicle id="veh35" depart="125">
        <route edges="cen_s_0 cen_s_1 cen_s_2 sx_s_0 sx_s_1 sx_s_2 sx_s_3 sx_s_4 sx_s_5 sx_s_6 sx_s_7 sx_s_8 sx_s_9 sx_s_10 sx_s_11 sx_s_12"/>
    </vehicle>
    <vehicle id="veh36" depart="131">
        <route edges="dx_n_0 dx_n_1 dx_n_2 dx_n_3 dx_n_4 dx_n_5 dx_n_6 dx_n_7 dx_n_8 dx_n_9 dx_n_10 dx_n_11 dx_n_12 dx_n_13 dx_n_14 dx_n_15 dx_n_16"/>
    </vehicle>
    <vehicle id="veh37" depart="140">
        <route edges="dx_n_0 dx_n_1 dx_to_sx_0 cen_n_2 cen_n_3 cen_n_4 cen_n_5 cen_n_6 cen_n_7 cen_n_8 cen_n_9 cen_n_10 cen_n_11 cen_n_12"/>
    </vehicle>
    <vehicle id="veh38" depart="153">
        <route edges="cen_s_0 cen_s_1 cen_s_2 sx_s_0 sx_s_1 sx_s_2 sx_s_3 sx_s_4 sx_s_5 sx_s_6 sx_s_7 sx_s_8 sx_s_9 sx_s_10 sx_s_11 sx_s_12"/>
    </vehicle>
    <vehicle id="veh39" depart="162">
        <route edges="dx_n_0 dx_n_1 dx_to_sx_0 cen_n_2 cen_n_3 cen_n_4 cen_n_5 cen_n_6 cen_n_7 cen_n_8 cen_n_9 cen_n_10 cen_n_11 cen_n_12"/>
    </vehicle>
    <vehicle id="veh40" depart="165">
        <route edges="cen_s_0 cen_s_1 cen_s_2 cen_s_3 cen_s_4 cen_s_5 cen_s_6 cen_s_7 cen_s_8 cen_s_9 cen_s_10 cen_to_sx sx_s_12"/>
    </vehicle>
    <vehicle id="veh41" depart="171">
        <route edges="cen_s_0 cen_s_1 cen_s_2 cen_s_3 cen_s_4 cen_s_5 cen_s_6 cen_s_7 cen_s_8 cen_s_9 cen_s_10 cen_s_11 cen_s_12 cen_s_13 cen_s_14 cen_s_15"/>
    </vehicle>
    <vehicle id="veh42" depart="176">
        <route edges="cen_n_0 cen_n_1 cen_n_2 cen_n_3 cen_n_4 cen_n_5 cen_n_6 cen_n_7 cen_n_8 cen_n_9 cen_n_10 cen_n_11 cen_n_12"/>
    </vehicle>
    <vehicle id="veh43" depart="180">
        <route edges="cen_s_0 cen_s_1 cen_s_2 sx_s_0 sx_s_1 sx_s_2 sx_s_3 sx_s_4 sx_s_5 sx_s_6 sx_s_7 sx_s_8 sx_s_9 sx_s_10 sx_s_11 sx_s_12"/>
    </vehicle>
    <vehicle id="veh44" depart="184">
        <route edges="dx_n_0 dx_n_1 dx_n_2 dx_n_3 dx_n_4 dx_n_5 dx_n_6 dx_n_7 dx_n_8 dx_n_9 dx_n_10 dx_n_11 dx_n_12 dx_n_13 dx_n_14 dx_n_15 dx_n_16"/>
    </vehicle>
</routes>

