<!-- number of vehicles:75 -->
<!-- generated on 2024-05-18 17:05:32.919904 by "vehicleFlow.py cars.rou.xml" -->
<routes>
  <route id="0" edges="ne_to_nw nw_to_sw sw_to_se se_to_ne"/>
  <route id="1" edges="se_to_sw sw_to_nw nw_to_ne ne_to_se"/>
  <route id="2" edges="nw_to_sw sw_to_se se_to_ne ne_to_nw"/>
  <route id="3" edges="sw_to_nw nw_to_ne ne_to_se se_to_sw"/>
  <route id="4" edges="sw_to_se se_to_ne ne_to_nw nw_to_sw"/>
  <route id="5" edges="nw_to_ne ne_to_se se_to_sw sw_to_nw"/>

  <vType accel="4" decel="7.5" emergencyDecel="10" minGap="1.0" id="Car0" maxSpeed="20.83" />
  <vType accel="4" decel="7.5" emergencyDecel="10" minGap="1.0" id="Car1" maxSpeed="20.83" vClass="emergency" />

      <vehicle id="veh1" type="Car0" depart="0.17323518046382766" route="3">
    </vehicle>
      <vehicle id="veh2" type="Car0" depart="0.29585400253852645" route="3">
    </vehicle>
      <vehicle id="veh3" type="Car0" depart="1.158961656661659" route="2">
    </vehicle>
      <vehicle id="veh4" type="Car0" depart="1.1730405377550945" route="5">
    </vehicle>
      <vehicle id="veh5" type="Car0" depart="1.7110807789037459" route="2">
    </vehicle>
      <vehicle id="veh6" type="Car0" depart="1.9440098144057671" route="0">
    </vehicle>
      <vehicle id="veh7" type="Car0" depart="6.324759599603532" route="5">
    </vehicle>
      <vehicle id="veh8" type="Car0" depart="7.984099665178019" route="0">
    </vehicle>
      <vehicle id="veh9" type="Car0" depart="10.058505802913828" route="5">
    </vehicle>
      <vehicle id="veh10" type="Car0" depart="12.449917855851862" route="4">
    </vehicle>
      <vehicle id="veh11" type="Car0" depart="14.452511098119533" route="5">
    </vehicle>
      <vehicle id="veh12" type="Car0" depart="14.978817403996247" route="2">
    </vehicle>
      <vehicle id="veh13" type="Car0" depart="15.668034321643168" route="5">
    </vehicle>
      <vehicle id="veh14" type="Car0" depart="16.62558186533559" route="4">
    </vehicle>
      <vehicle id="veh15" type="Car0" depart="18.418445413554824" route="1">
    </vehicle>
      <vehicle id="veh16" type="Car0" depart="19.379960725801883" route="2">
    </vehicle>
      <vehicle id="veh17" type="Car0" depart="20.69364631708672" route="5">
    </vehicle>
      <vehicle id="veh18" type="Car0" depart="21.69363671582568" route="1">
    </vehicle>
      <vehicle id="veh19" type="Car0" depart="24.28638549969868" route="5">
    </vehicle>
      <vehicle id="veh20" type="Car0" depart="25.929911838959214" route="0">
    </vehicle>
      <vehicle id="veh21" type="Car0" depart="26.866327455426685" route="3">
    </vehicle>
      <vehicle id="veh22" type="Car0" depart="28.218594370379435" route="4">
    </vehicle>
      <vehicle id="veh23" type="Car0" depart="29.800894758261705" route="2">
    </vehicle>
      <vehicle id="veh24" type="Car0" depart="30.42201918754196" route="4">
    </vehicle>
      <vehicle id="veh25" type="Car0" depart="31.259213248955593" route="1">
    </vehicle>
      <vehicle id="veh26" type="Car0" depart="32.05137193303761" route="0">
    </vehicle>
      <vehicle id="veh27" type="Car0" depart="32.3629899467622" route="4">
    </vehicle>
      <vehicle id="veh28" type="Car0" depart="32.53607867788747" route="4">
    </vehicle>
      <vehicle id="veh29" type="Car0" depart="32.87975266911089" route="3">
    </vehicle>
      <vehicle id="veh30" type="Car0" depart="33.28044917478857" route="3">
    </vehicle>
      <vehicle id="veh31" type="Car0" depart="34.67747471166794" route="4">
    </vehicle>
      <vehicle id="veh32" type="Car0" depart="34.71668733176122" route="0">
    </vehicle>
      <vehicle id="veh33" type="Car0" depart="34.877061650547596" route="4">
    </vehicle>
      <vehicle id="veh34" type="Car0" depart="35.102436012912214" route="4">
    </vehicle>
      <vehicle id="veh35" type="Car0" depart="36.59191062133605" route="5">
    </vehicle>
      <vehicle id="veh36" type="Car0" depart="36.64823520347576" route="2">
    </vehicle>
      <vehicle id="veh37" type="Car0" depart="39.029170470659956" route="3">
    </vehicle>
      <vehicle id="veh38" type="Car0" depart="39.284448034790096" route="1">
    </vehicle>
      <vehicle id="veh39" type="Car0" depart="40.47071315325528" route="0">
    </vehicle>
      <vehicle id="veh40" type="Car0" depart="42.48482183289886" route="0">
    </vehicle>
      <vehicle id="veh41" type="Car0" depart="42.778357234820135" route="4">
    </vehicle>
      <vehicle id="veh42" type="Car0" depart="43.4078558311438" route="2">
    </vehicle>
      <vehicle id="veh43" type="Car0" depart="45.78790400164086" route="2">
    </vehicle>
      <vehicle id="veh44" type="Car0" depart="46.73836375775583" route="1">
    </vehicle>
      <vehicle id="veh45" type="Car0" depart="47.57471061922791" route="1">
    </vehicle>
      <vehicle id="veh46" type="Car0" depart="47.75022589002813" route="1">
    </vehicle>
      <vehicle id="veh47" type="Car0" depart="47.82677530705824" route="5">
    </vehicle>
      <vehicle id="veh48" type="Car0" depart="49.582401470261495" route="3">
    </vehicle>
      <vehicle id="veh49" type="Car0" depart="51.477957803224335" route="1">
    </vehicle>
      <vehicle id="veh50" type="Car0" depart="51.98347675096535" route="1">
    </vehicle>
      <vehicle id="veh51" type="Car0" depart="52.04399687986274" route="2">
    </vehicle>
      <vehicle id="veh52" type="Car0" depart="53.45924425919379" route="1">
    </vehicle>
      <vehicle id="veh53" type="Car0" depart="53.80382426157958" route="5">
    </vehicle>
      <vehicle id="veh54" type="Car0" depart="53.86836804928019" route="3">
    </vehicle>
      <vehicle id="veh55" type="Car0" depart="54.18405275752044" route="2">
    </vehicle>
      <vehicle id="veh56" type="Car0" depart="54.58750567573588" route="4">
    </vehicle>
      <vehicle id="veh57" type="Car0" depart="54.70776569420982" route="5">
    </vehicle>
      <vehicle id="veh58" type="Car0" depart="54.79067116064977" route="0">
    </vehicle>
      <vehicle id="veh59" type="Car0" depart="55.04909896563126" route="3">
    </vehicle>
      <vehicle id="veh60" type="Car0" depart="56.157753757978476" route="4">
    </vehicle>
      <vehicle id="veh61" type="Car0" depart="56.380548477092766" route="0">
    </vehicle>
      <vehicle id="veh62" type="Car0" depart="58.608283896722035" route="3">
    </vehicle>
      <vehicle id="veh63" type="Car0" depart="59.89177971511318" route="5">
    </vehicle>
      <vehicle id="veh64" type="Car0" depart="60.572024444945384" route="0">
    </vehicle>
      <vehicle id="veh65" type="Car0" depart="61.328412752943564" route="0">
    </vehicle>
      <vehicle id="veh66" type="Car0" depart="61.689394100161856" route="4">
    </vehicle>
      <vehicle id="veh67" type="Car0" depart="62.88804486197626" route="4">
    </vehicle>
      <vehicle id="veh68" type="Car0" depart="63.03304643007516" route="1">
    </vehicle>
      <vehicle id="veh69" type="Car0" depart="65.33710785264753" route="2">
    </vehicle>
      <vehicle id="veh70" type="Car0" depart="66.02535681157082" route="2">
    </vehicle>
      <vehicle id="veh71" type="Car0" depart="66.49263580798312" route="3">
    </vehicle>
      <vehicle id="veh72" type="Car0" depart="66.66627497810768" route="4">
    </vehicle>
      <vehicle id="veh73" type="Car0" depart="68.95724336239105" route="2">
    </vehicle>
      <vehicle id="veh74" type="Car0" depart="69.36580619774027" route="4">
    </vehicle>
      <vehicle id="veh75" type="Car0" depart="70.18436910183101" route="5">
    </vehicle>
</routes>