<?xml version="1.0" encoding="UTF-8"?>

<!-- generated on lun 20 apr 2020 12:37:51 CEST by Eclipse SUMO netedit Version 1.5.0
<configuration xmlns:xsi="http://www.w3.org/2001/XMLSchema-instance" xsi:noNamespaceSchemaLocation="http://sumo.dlr.de/xsd/netconvertConfiguration.xsd">

    <input>
        <sumo-net-file value="/home/marco/v2v-ns-3-sandbox/ns-3.29/src/automotive/examples/sumo-files/map.net.xml"/>
    </input>

    <output>
        <output-file value="/home/marco/v2v-ns-3-sandbox/ns-3.29/src/automotive/examples/sumo-files/map.net.xml"/>
    </output>

    <processing>
        <geometry.min-radius.fix.railways value="false"/>
        <geometry.max-grade.fix value="false"/>
        <offset.disable-normalization value="true"/>
        <lefthand value="false"/>
    </processing>

    <junctions>
        <no-internal-links value="true"/>
        <no-turnarounds value="true"/>
        <junctions.corner-detail value="5"/>
        <junctions.limit-turn-speed value="5.5"/>
        <rectangular-lane-cut value="false"/>
    </junctions>

    <pedestrian>
        <walkingareas value="false"/>
    </pedestrian>

    <report>
        <aggregate-warnings value="5"/>
    </report>

</configuration>
-->

<net version="1.3" junctionCornerDetail="5" limitTurnSpeed="5.50" xmlns:xsi="http://www.w3.org/2001/XMLSchema-instance" xsi:noNamespaceSchemaLocation="http://sumo.dlr.de/xsd/net_file.xsd">

    <location netOffset="-394175.96,-4989734.74" convBoundary="-135.00,-100.00,185.00,-5.45" origBoundary="7.655664,45.053168,7.678963,45.076295" projParameter="+proj=utm +zone=32 +ellps=WGS84 +datum=WGS84 +units=m +no_defs"/>

    <edge id="ne_to_nw" from="ne" to="nw" priority="-1" length="250.00">
        <lane id="ne_to_nw_0" index="0" speed="30.00" length="250.00" width="3.00" shape="148.22,-0.95 -98.22,-0.95"/>
        <lane id="ne_to_nw_1" index="1" speed="30.00" length="250.00" width="3.00" shape="148.22,-3.95 -98.22,-3.95"/>
    </edge>
    <edge id="ne_to_se" from="ne" to="se" priority="-1" shape="150.00,-5.45 180.00,-25.00 185.00,-50.00 180.00,-80.00 150.00,-100.00">
        <lane id="ne_to_se_0" index="0" speed="30.00" length="127.77" width="3.00" shape="149.04,-10.19 175.96,-27.74 180.43,-50.07 175.88,-77.34 149.02,-95.25"/>
        <lane id="ne_to_se_1" index="1" speed="30.00" length="127.77" width="3.00" shape="150.67,-7.68 178.65,-25.91 183.48,-50.02 178.63,-79.11 150.68,-97.74"/>
    </edge>
    <edge id="nw_to_ne" from="nw" to="ne" priority="-1" length="250.00">
        <lane id="nw_to_ne_0" index="0" speed="30.00" length="250.00" width="3.00" shape="-98.22,-9.95 148.22,-9.95"/>
        <lane id="nw_to_ne_1" index="1" speed="30.00" length="250.00" width="3.00" shape="-98.22,-6.95 148.22,-6.95"/>
    </edge>
    <edge id="nw_to_sw" from="nw" to="sw" priority="-1" shape="-100.00,-5.45 -130.00,-25.00 -135.00,-50.00 -130.00,-80.00 -100.00,-100.00">
        <lane id="nw_to_sw_0" index="0" speed="30.00" length="127.77" width="3.00" shape="-103.95,-2.65 -134.04,-22.26 -139.57,-49.93 -134.12,-82.66 -104.01,-102.74"/>
        <lane id="nw_to_sw_1" index="1" speed="30.00" length="127.77" width="3.00" shape="-102.31,-5.17 -131.35,-24.09 -136.52,-49.98 -131.37,-80.89 -102.34,-100.24"/>
    </edge>
    <edge id="se_to_ne" from="se" to="ne" priority="-1" shape="150.00,-100.00 180.00,-80.00 185.00,-50.00 180.00,-25.00 150.00,-5.45">
        <lane id="se_to_ne_0" index="0" speed="30.00" length="127.77" width="3.00" shape="154.01,-102.74 184.12,-82.66 189.57,-49.93 184.04,-22.26 153.95,-2.65"/>
        <lane id="se_to_ne_1" index="1" speed="30.00" length="127.77" width="3.00" shape="152.34,-100.24 181.37,-80.89 186.52,-49.98 181.35,-24.09 152.31,-5.17"/>
    </edge>
    <edge id="se_to_sw" from="se" to="sw" priority="-1">
        <lane id="se_to_sw_0" index="0" speed="30.00" length="250.00" width="3.00" shape="148.18,-95.50 -98.18,-95.50"/>
        <lane id="se_to_sw_1" index="1" speed="30.00" length="250.00" width="3.00" shape="148.18,-98.50 -98.18,-98.50"/>
    </edge>
    <edge id="sw_to_nw" from="sw" to="nw" priority="-1" shape="-100.00,-100.00 -130.00,-80.00 -135.00,-50.00 -130.00,-25.00 -100.00,-5.45">
        <lane id="sw_to_nw_0" index="0" speed="30.00" length="127.77" width="3.00" shape="-99.02,-95.25 -125.88,-77.34 -130.43,-50.07 -125.96,-27.74 -99.04,-10.19"/>
        <lane id="sw_to_nw_1" index="1" speed="30.00" length="127.77" width="3.00" shape="-100.68,-97.74 -128.63,-79.11 -133.48,-50.02 -128.65,-25.91 -100.67,-7.68"/>
    </edge>
    <edge id="sw_to_se" from="sw" to="se" priority="-1">
        <lane id="sw_to_se_0" index="0" speed="30.00" length="250.00" width="3.00" shape="-98.18,-104.50 148.18,-104.50"/>
        <lane id="sw_to_se_1" index="1" speed="30.00" length="250.00" width="3.00" shape="-98.18,-101.50 148.18,-101.50"/>
    </edge>

    <junction id="ne" type="priority" x="150.00" y="-5.45" incLanes="se_to_ne_0 se_to_ne_1 nw_to_ne_0 nw_to_ne_1" intLanes="" shape="154.77,-1.40 148.22,-11.45 148.22,0.55 150.80,0.46 151.70,0.28 152.56,-0.06 153.53,-0.60">
        <request index="0" response="0000" foes="0000"/>
        <request index="1" response="0000" foes="0000"/>
        <request index="2" response="0000" foes="0000"/>
        <request index="3" response="0000" foes="0000"/>
    </junction>
    <junction id="nw" type="priority" x="-100.00" y="-5.45" incLanes="ne_to_nw_0 ne_to_nw_1 sw_to_nw_0 sw_to_nw_1" intLanes="" shape="-98.22,0.55 -98.22,-11.45 -104.77,-1.40 -102.56,-0.06 -101.70,0.28 -100.80,0.46 -99.69,0.54">
        <request index="0" response="0000" foes="0000"/>
        <request index="1" response="0000" foes="0000"/>
        <request index="2" response="0000" foes="0000"/>
        <request index="3" response="0000" foes="0000"/>
    </junction>
    <junction id="se" type="priority" x="150.00" y="-100.00" incLanes="ne_to_se_0 ne_to_se_1 sw_to_se_0 sw_to_se_1" intLanes="" shape="148.18,-94.00 154.84,-103.98 152.60,-105.36 151.73,-105.72 150.81,-105.91 149.68,-105.98 148.18,-106.00">
        <request index="0" response="0000" foes="0000"/>
        <request index="1" response="0000" foes="0000"/>
        <request index="2" response="0000" foes="0000"/>
        <request index="3" response="0000" foes="0000"/>
    </junction>
    <junction id="sw" type="priority" x="-100.00" y="-100.00" incLanes="se_to_sw_0 se_to_sw_1 nw_to_sw_0 nw_to_sw_1" intLanes="" shape="-98.18,-94.00 -98.18,-106.00 -100.81,-105.91 -101.73,-105.72 -102.60,-105.36 -103.58,-104.80 -104.84,-103.98">
        <request index="0" response="0000" foes="0000"/>
        <request index="1" response="0000" foes="0000"/>
        <request index="2" response="0000" foes="0000"/>
        <request index="3" response="0000" foes="0000"/>
    </junction>

    <connection from="ne_to_nw" to="nw_to_sw" fromLane="0" toLane="0" dir="s" state="M"/>
    <connection from="ne_to_nw" to="nw_to_sw" fromLane="1" toLane="1" dir="s" state="M"/>
    <connection from="ne_to_se" to="se_to_sw" fromLane="0" toLane="0" dir="s" state="M"/>
    <connection from="ne_to_se" to="se_to_sw" fromLane="1" toLane="1" dir="s" state="M"/>
    <connection from="nw_to_ne" to="ne_to_se" fromLane="0" toLane="0" dir="s" state="M"/>
    <connection from="nw_to_ne" to="ne_to_se" fromLane="1" toLane="1" dir="s" state="M"/>
    <connection from="nw_to_sw" to="sw_to_se" fromLane="0" toLane="0" dir="s" state="M"/>
    <connection from="nw_to_sw" to="sw_to_se" fromLane="1" toLane="1" dir="s" state="M"/>
    <connection from="se_to_ne" to="ne_to_nw" fromLane="0" toLane="0" dir="s" state="M"/>
    <connection from="se_to_ne" to="ne_to_nw" fromLane="1" toLane="1" dir="s" state="M"/>
    <connection from="se_to_sw" to="sw_to_nw" fromLane="0" toLane="0" dir="s" state="M"/>
    <connection from="se_to_sw" to="sw_to_nw" fromLane="1" toLane="1" dir="s" state="M"/>
    <connection from="sw_to_nw" to="nw_to_ne" fromLane="0" toLane="0" dir="s" state="M"/>
    <connection from="sw_to_nw" to="nw_to_ne" fromLane="1" toLane="1" dir="s" state="M"/>
    <connection from="sw_to_se" to="se_to_ne" fromLane="0" toLane="0" dir="s" state="M"/>
    <connection from="sw_to_se" to="se_to_ne" fromLane="1" toLane="1" dir="s" state="M"/>

</net>
